M00003998
  CDK     04222210083D

 43 43  0  0  0  0  0  0  0  0999 V2000
    2.0096    0.1330    0.1100 Pt  0  0  0  0  0  0  0  0  0  0  0  0
    3.9051    0.1792    0.2233 C   0  0  0  0  0  0  0  0  0  0  0  0
    5.0499    0.2398    0.2944 O   0  0  0  0  0  0  0  0  0  0  0  0
    1.7055   -1.8890    0.4129 O   0  0  0  0  0  0  0  0  0  0  0  0
    2.8565   -2.6881    0.3967 C   0  0  0  0  0  0  0  0  0  0  0  0
    2.5046   -3.7258    0.4978 H   0  0  0  0  0  0  0  0  0  0  0  0
    3.5042   -2.4321    1.2447 H   0  0  0  0  0  0  0  0  0  0  0  0
    3.3871   -2.5683   -0.5560 H   0  0  0  0  0  0  0  0  0  0  0  0
   -0.0181    0.1867   -0.0054 C   0  0  2  0  0  0  0  0  0  0  0  0
   -0.8833    0.2151    1.0718 N   0  0  0  0  0  0  0  0  0  0  0  0
   -2.2211    0.2592    0.5943 C   0  0  0  0  0  0  0  0  0  0  0  0
   -2.1597    0.2434   -0.7969 C   0  0  0  0  0  0  0  0  0  0  0  0
   -0.7840    0.1902   -1.1551 N   0  0  0  0  0  0  0  0  0  0  0  0
   -3.3991    0.3028    1.4805 C   0  0  0  0  0  0  0  0  0  0  0  0
   -4.3381    0.2777    0.9054 H   0  0  0  0  0  0  0  0  0  0  0  0
   -3.4216    1.2223    2.0876 H   0  0  0  0  0  0  0  0  0  0  0  0
   -3.4258   -0.5566    2.1699 H   0  0  0  0  0  0  0  0  0  0  0  0
    1.0783   -0.5940   -2.5980 C   0  0  0  0  0  0  0  0  0  0  0  0
   -0.2579    0.1475   -2.5611 C   0  0  0  0  0  0  0  0  0  0  0  0
   -0.1395    1.5740   -3.0962 C   0  0  0  0  0  0  0  0  0  0  0  0
   -1.0999    2.1007   -3.1051 H   0  0  0  0  0  0  0  0  0  0  0  0
    0.2550    1.5791   -4.1196 H   0  0  0  0  0  0  0  0  0  0  0  0
    0.5488    2.1878   -2.4901 H   0  0  0  0  0  0  0  0  0  0  0  0
    1.2950   -0.9530   -3.6114 H   0  0  0  0  0  0  0  0  0  0  0  0
    1.9257    0.0530   -2.2983 H   0  0  0  0  0  0  0  0  0  0  0  0
    1.0920   -1.4783   -1.9297 H   0  0  0  0  0  0  0  0  0  0  0  0
   -1.0149   -0.4252   -3.1648 H   0  0  0  0  0  0  0  0  0  0  0  0
   -3.2543    0.2683   -1.7848 C   0  0  0  0  0  0  0  0  0  0  0  0
   -3.1322    1.0831   -2.5164 H   0  0  0  0  0  0  0  0  0  0  0  0
   -4.2315    0.4211   -1.3002 H   0  0  0  0  0  0  0  0  0  0  0  0
   -3.3194   -0.6783   -2.3454 H   0  0  0  0  0  0  0  0  0  0  0  0
    0.7097    1.1378    2.7353 C   0  0  0  0  0  0  0  0  0  0  0  0
   -0.4605    0.1797    2.5137 C   0  0  0  0  0  0  0  0  0  0  0  0
   -0.1034   -1.2596    2.8760 C   0  0  0  0  0  0  0  0  0  0  0  0
   -0.9659   -1.9311    2.8211 H   0  0  0  0  0  0  0  0  0  0  0  0
    0.3177   -1.3275    3.8839 H   0  0  0  0  0  0  0  0  0  0  0  0
    0.6586   -1.6799    2.1780 H   0  0  0  0  0  0  0  0  0  0  0  0
    0.5638    2.1075    2.2349 H   0  0  0  0  0  0  0  0  0  0  0  0
    0.8466    1.3424    3.8045 H   0  0  0  0  0  0  0  0  0  0  0  0
    1.6691    0.7254    2.3651 H   0  0  0  0  0  0  0  0  0  0  0  0
   -1.3409    0.5247    3.1200 H   0  0  0  0  0  0  0  0  0  0  0  0
    2.0518    2.0825   -0.1994 C   0  0  0  0  0  0  0  0  0  0  0  0
    2.0366    3.2232   -0.3881 N   0  0  0  0  0  0  0  0  0  0  0  0
  2  3  3  0  0  0  0
  1  2  1  0  0  0  0
  5  6  1  0  0  0  0
  5  7  1  0  0  0  0
  5  8  1  0  0  0  0
  4  5  1  0  0  0  0
  1  4  1  0  0  0  0
 10  9  1  0  0  0  0
 11 10  1  0  0  0  0
 12 11  2  0  0  0  0
 12 13  1  0  0  0  0
 13  9  1  0  0  0  0
  1  9  1  0  0  0  0
 15 14  1  0  0  0  0
 16 14  1  0  0  0  0
 17 14  1  0  0  0  0
 11 14  1  0  0  0  0
 18 19  1  0  0  0  0
 19 20  1  0  0  0  0
 20 21  1  0  0  0  0
 20 22  1  0  0  0  0
 20 23  1  0  0  0  0
 18 24  1  0  0  0  0
 18 25  1  0  0  0  0
 18 26  1  0  0  0  0
 19 27  1  0  0  0  0
 13 19  1  0  0  0  0
 29 28  1  0  0  0  0
 30 28  1  0  0  0  0
 31 28  1  0  0  0  0
 12 28  1  0  0  0  0
 32 33  1  0  0  0  0
 33 34  1  0  0  0  0
 34 35  1  0  0  0  0
 34 36  1  0  0  0  0
 34 37  1  0  0  0  0
 32 38  1  0  0  0  0
 32 39  1  0  0  0  0
 32 40  1  0  0  0  0
 33 41  1  0  0  0  0
 10 33  1  0  0  0  0
 42 43  3  0  0  0  0
  1 42  1  0  0  0  0
M  END
> <PM6_ENERGY>
-186.304

> <UID>
LIHVWTSBJJFEGD-KPSWIHMTNA-N

> <FITNESS>
1.14861

> <GCODE>
4722

> <GraphENC>
4722 72_1_0,80_65_1,97_19_1,87_66_1,92893_20_1,93082_33_1,93081_20_1,92883_33_1, 72_0_80_0_SINGLE_Xlig:0_Xlig:1,72_2_97_0_SINGLE_scaff:0_MImidazolylidene:1,72_1_87_0_SINGLE_Xlig:0_Xlig:1,97_2_92893_0_SINGLE_LImidazolylideneSubCS:0_LImidazolylideneSubCS:1,97_4_93082_0_SINGLE_LImidazolylideneSubNL:0_SubRM:1,97_3_93081_0_SINGLE_LImidazolylideneSubCS:0_LImidazolylideneSubCS:1,97_1_92883_0_SINGLE_LImidazolylideneSubNL:0_SubRM:1, SymmetricSet [symIds=[93082, 92883]] SymmetricSet [symIds=[92893, 93081]] 

> <GraphJson>
{
  "graphId": 4722,
  "gVertices": [
    {
      "lstAPs": [
        {
          "id": 122444,
          "atomPositionNumber": 0,
          "atomPositionNumberInMol": 0,
          "apClass": {
            "rule": "Xlig",
            "subClass": 0,
            "bndTyp": "SINGLE"
          },
          "dirVec": {
            "x": -2.3339,
            "y": -0.0087,
            "z": 0.8172
          }
        },
        {
          "id": 122445,
          "atomPositionNumber": 0,
          "atomPositionNumberInMol": 0,
          "apClass": {
            "rule": "Xlig",
            "subClass": 0,
            "bndTyp": "SINGLE"
          },
          "dirVec": {
            "x": 2.336,
            "y": -5.0E-4,
            "z": 0.829
          }
        },
        {
          "id": 122446,
          "atomPositionNumber": 0,
          "atomPositionNumberInMol": 0,
          "apClass": {
            "rule": "scaff",
            "subClass": 0,
            "bndTyp": "SINGLE"
          },
          "dirVec": {
            "x": -0.0095,
            "y": 0.0046,
            "z": -1.7113
          }
        }
      ],
      "lstSymAPs": [
        {
          "symIds": [
            0,
            1
          ]
        }
      ],
      "mol": {
        "atoms": [
          {
            "elSymbol": "Pt",
            "p3d": {
              "x": -0.0098,
              "y": 0.0049,
              "z": 0.6289
            }
          },
          {
            "elSymbol": "C",
            "p3d": {
              "x": -6.0E-4,
              "y": 0.0016,
              "z": 2.5609
            }
          },
          {
            "elSymbol": "O",
            "p3d": {
              "x": 0.0025,
              "y": -0.0041,
              "z": 3.6974
            }
          },
          {
            "elSymbol": "Du",
            "p3d": {
              "x": -0.007,
              "y": 1.0013,
              "z": 0.6372
            }
          },
          {
            "elSymbol": "Du",
            "p3d": {
              "x": -0.0014,
              "y": 0.9902,
              "z": 2.5698
            }
          }
        ],
        "bonds": [
          {
            "atomIds": [
              1,
              2
            ],
            "bo": "TRIPLE"
          },
          {
            "atomIds": [
              0,
              1
            ],
            "bo": "SINGLE"
          },
          {
            "atomIds": [
              3,
              0
            ],
            "bo": "SINGLE"
          },
          {
            "atomIds": [
              4,
              1
            ],
            "bo": "SINGLE"
          }
        ]
      },
      "vertexId": 72,
      "buildingBlockId": 0,
      "buildingBlockType": "SCAFFOLD",
      "isRCV": false,
      "properties": {
        "ATTACHMENT_POINTS": "1#Xlig:0:SINGLE:-2.3339%-0.0087%0.8172,Xlig:0:SINGLE:2.3360%-0.0005%0.8290,scaff:0:SINGLE:-0.0095%0.0046%-1.7113 "
      },
      "uniquefyingPropertyKeys": [],
      "allowedMutationTypes": [
        "DELETE",
        "EXTEND",
        "CHANGEBRANCH",
        "CHANGELINK",
        "ADDLINK",
        "DELETELINK",
        "DELETECHAIN"
      ],
      "vertexType": "MolecularFragment"
    },
    {
      "lstAPs": [
        {
          "id": 122447,
          "atomPositionNumber": 0,
          "atomPositionNumberInMol": 5,
          "apClass": {
            "rule": "Xlig",
            "subClass": 1,
            "bndTyp": "SINGLE"
          },
          "dirVec": {
            "x": -0.1753,
            "y": 0.0948,
            "z": -0.4464
          }
        }
      ],
      "lstSymAPs": [],
      "mol": {
        "atoms": [
          {
            "elSymbol": "O",
            "p3d": {
              "x": -0.3534,
              "y": 2.1044,
              "z": -0.7339
            }
          },
          {
            "elSymbol": "C",
            "p3d": {
              "x": -0.5345,
              "y": 2.7646,
              "z": 0.4801
            }
          },
          {
            "elSymbol": "H",
            "p3d": {
              "x": -0.3728,
              "y": 3.8337,
              "z": 0.2724
            }
          },
          {
            "elSymbol": "H",
            "p3d": {
              "x": 0.1816,
              "y": 2.4161,
              "z": 1.2384
            }
          },
          {
            "elSymbol": "H",
            "p3d": {
              "x": -1.553,
              "y": 2.6149,
              "z": 0.8489
            }
          }
        ],
        "bonds": [
          {
            "atomIds": [
              1,
              2
            ],
            "bo": "SINGLE"
          },
          {
            "atomIds": [
              1,
              3
            ],
            "bo": "SINGLE"
          },
          {
            "atomIds": [
              1,
              4
            ],
            "bo": "SINGLE"
          },
          {
            "atomIds": [
              0,
              1
            ],
            "bo": "SINGLE"
          }
        ]
      },
      "vertexId": 80,
      "buildingBlockId": 64,
      "buildingBlockType": "FRAGMENT",
      "isRCV": false,
      "properties": {
        "ATTACHMENT_POINTS": "1#Xlig:1:SINGLE:-0.1753%0.0948%-0.4464 "
      },
      "uniquefyingPropertyKeys": [],
      "allowedMutationTypes": [
        "DELETE",
        "EXTEND",
        "CHANGEBRANCH",
        "CHANGELINK",
        "ADDLINK",
        "DELETELINK",
        "DELETECHAIN"
      ],
      "vertexType": "MolecularFragment"
    },
    {
      "lstAPs": [
        {
          "id": 122448,
          "atomPositionNumber": 0,
          "atomPositionNumberInMol": 10,
          "apClass": {
            "rule": "MImidazolylidene",
            "subClass": 1,
            "bndTyp": "SINGLE"
          },
          "dirVec": {
            "x": 6.9056,
            "y": 0.097,
            "z": 12.1004
          }
        },
        {
          "id": 122449,
          "atomPositionNumber": 1,
          "atomPositionNumberInMol": 11,
          "apClass": {
            "rule": "LImidazolylideneSubNL",
            "subClass": 0,
            "bndTyp": "SINGLE"
          },
          "dirVec": {
            "x": 4.1123,
            "y": 2.1609,
            "z": 11.1322
          }
        },
        {
          "id": 122450,
          "atomPositionNumber": 2,
          "atomPositionNumberInMol": 12,
          "apClass": {
            "rule": "LImidazolylideneSubCS",
            "subClass": 0,
            "bndTyp": "SINGLE"
          },
          "dirVec": {
            "x": 2.203,
            "y": 3.3086,
            "z": 13.3341
          }
        },
        {
          "id": 122451,
          "atomPositionNumber": 3,
          "atomPositionNumberInMol": 13,
          "apClass": {
            "rule": "LImidazolylideneSubCS",
            "subClass": 0,
            "bndTyp": "SINGLE"
          },
          "dirVec": {
            "x": 3.4334,
            "y": 2.3948,
            "z": 16.1586
          }
        },
        {
          "id": 122452,
          "atomPositionNumber": 4,
          "atomPositionNumberInMol": 14,
          "apClass": {
            "rule": "LImidazolylideneSubNL",
            "subClass": 0,
            "bndTyp": "SINGLE"
          },
          "dirVec": {
            "x": 5.9067,
            "y": 0.5846,
            "z": 15.5163
          }
        }
      ],
      "lstSymAPs": [
        {
          "symIds": [
            1,
            4
          ]
        },
        {
          "symIds": [
            2,
            3
          ]
        }
      ],
      "mol": {
        "atoms": [
          {
            "elSymbol": "C",
            "p3d": {
              "x": 5.2812,
              "y": 1.2018,
              "z": 13.1656
            }
          },
          {
            "elSymbol": "N",
            "p3d": {
              "x": 4.2675,
              "y": 1.9426,
              "z": 12.5989
            }
          },
          {
            "elSymbol": "C",
            "p3d": {
              "x": 3.4407,
              "y": 2.4761,
              "z": 13.582
            }
          },
          {
            "elSymbol": "C",
            "p3d": {
              "x": 3.9357,
              "y": 2.0507,
              "z": 14.777
            }
          },
          {
            "elSymbol": "N",
            "p3d": {
              "x": 5.0694,
              "y": 1.2634,
              "z": 14.5115
            }
          }
        ],
        "bonds": [
          {
            "atomIds": [
              1,
              0
            ],
            "bo": "SINGLE"
          },
          {
            "atomIds": [
              2,
              1
            ],
            "bo": "SINGLE"
          },
          {
            "atomIds": [
              3,
              2
            ],
            "bo": "DOUBLE"
          },
          {
            "atomIds": [
              3,
              4
            ],
            "bo": "SINGLE"
          },
          {
            "atomIds": [
              4,
              0
            ],
            "bo": "SINGLE"
          }
        ]
      },
      "vertexId": 97,
      "buildingBlockId": 18,
      "buildingBlockType": "FRAGMENT",
      "isRCV": false,
      "properties": {
        "ATTACHMENT_POINTS": "1#MImidazolylidene:1:SINGLE:6.9056%0.0970%12.1004 2#LImidazolylideneSubNL:0:SINGLE:4.1123%2.1609%11.1322 3#LImidazolylideneSubCS:0:SINGLE:2.2030%3.3086%13.3341 4#LImidazolylideneSubCS:0:SINGLE:3.4334%2.3948%16.1586 5#LImidazolylideneSubNL:0:SINGLE:5.9067%0.5846%15.5163 "
      },
      "uniquefyingPropertyKeys": [],
      "allowedMutationTypes": [
        "DELETE",
        "EXTEND",
        "CHANGEBRANCH",
        "CHANGELINK",
        "ADDLINK",
        "DELETELINK",
        "DELETECHAIN"
      ],
      "vertexType": "MolecularFragment"
    },
    {
      "lstAPs": [
        {
          "id": 122453,
          "atomPositionNumber": 0,
          "atomPositionNumberInMol": 43,
          "apClass": {
            "rule": "Xlig",
            "subClass": 1,
            "bndTyp": "SINGLE"
          },
          "dirVec": {
            "x": 0.0192,
            "y": -0.0048,
            "z": -0.5645
          }
        }
      ],
      "lstSymAPs": [],
      "mol": {
        "atoms": [
          {
            "elSymbol": "C",
            "p3d": {
              "x": -1.967,
              "y": -0.0075,
              "z": -0.4937
            }
          },
          {
            "elSymbol": "N",
            "p3d": {
              "x": -3.1263,
              "y": -0.0054,
              "z": -0.4354
            }
          },
          {
            "elSymbol": "Du",
            "p3d": {
              "x": -1.9744,
              "y": 0.9926,
              "z": -0.5036
            }
          }
        ],
        "bonds": [
          {
            "atomIds": [
              0,
              1
            ],
            "bo": "TRIPLE"
          },
          {
            "atomIds": [
              2,
              0
            ],
            "bo": "SINGLE"
          }
        ]
      },
      "vertexId": 87,
      "buildingBlockId": 65,
      "buildingBlockType": "FRAGMENT",
      "isRCV": false,
      "properties": {
        "ATTACHMENT_POINTS": "1#Xlig:1:SINGLE:0.0192%-0.0048%-0.5645 "
      },
      "uniquefyingPropertyKeys": [],
      "allowedMutationTypes": [
        "DELETE",
        "EXTEND",
        "CHANGEBRANCH",
        "CHANGELINK",
        "ADDLINK",
        "DELETELINK",
        "DELETECHAIN"
      ],
      "vertexType": "MolecularFragment"
    },
    {
      "lstAPs": [
        {
          "id": 122496,
          "atomPositionNumber": 0,
          "atomPositionNumberInMol": 15,
          "apClass": {
            "rule": "LImidazolylideneSubCS",
            "subClass": 1,
            "bndTyp": "SINGLE"
          },
          "dirVec": {
            "x": -0.1277,
            "y": 4.1125,
            "z": 2.0278
          }
        }
      ],
      "lstSymAPs": [],
      "mol": {
        "atoms": [
          {
            "elSymbol": "C",
            "p3d": {
              "x": -1.5227,
              "y": 4.6114,
              "z": 1.6409
            }
          },
          {
            "elSymbol": "H",
            "p3d": {
              "x": -1.4627,
              "y": 5.218,
              "z": 0.7489
            }
          },
          {
            "elSymbol": "H",
            "p3d": {
              "x": -1.9308,
              "y": 5.2054,
              "z": 2.4549
            }
          },
          {
            "elSymbol": "H",
            "p3d": {
              "x": -2.1725,
              "y": 3.7579,
              "z": 1.4674
            }
          }
        ],
        "bonds": [
          {
            "atomIds": [
              1,
              0
            ],
            "bo": "SINGLE"
          },
          {
            "atomIds": [
              2,
              0
            ],
            "bo": "SINGLE"
          },
          {
            "atomIds": [
              3,
              0
            ],
            "bo": "SINGLE"
          }
        ]
      },
      "vertexId": 92893,
      "buildingBlockId": 19,
      "buildingBlockType": "FRAGMENT",
      "isRCV": false,
      "properties": {
        "ATTACHMENT_POINTS": "1#LImidazolylideneSubCS:1:SINGLE:-0.1277%4.1125%2.0278 "
      },
      "uniquefyingPropertyKeys": [],
      "allowedMutationTypes": [
        "DELETE",
        "EXTEND",
        "CHANGEBRANCH",
        "CHANGELINK",
        "ADDLINK",
        "DELETELINK",
        "DELETECHAIN"
      ],
      "vertexType": "MolecularFragment"
    },
    {
      "lstAPs": [
        {
          "id": 122497,
          "atomPositionNumber": 1,
          "atomPositionNumberInMol": 20,
          "apClass": {
            "rule": "SubRM",
            "subClass": 1,
            "bndTyp": "SINGLE"
          },
          "dirVec": {
            "x": 0.2868,
            "y": 0.385,
            "z": -0.643
          }
        }
      ],
      "lstSymAPs": [],
      "mol": {
        "atoms": [
          {
            "elSymbol": "C",
            "p3d": {
              "x": 1.141,
              "y": 1.0262,
              "z": 1.6347
            }
          },
          {
            "elSymbol": "C",
            "p3d": {
              "x": 0.3967,
              "y": -0.0479,
              "z": 0.8227
            }
          },
          {
            "elSymbol": "C",
            "p3d": {
              "x": 1.1459,
              "y": -1.371,
              "z": 0.9201
            }
          },
          {
            "elSymbol": "H",
            "p3d": {
              "x": 2.1461,
              "y": -1.2583,
              "z": 0.4976
            }
          },
          {
            "elSymbol": "H",
            "p3d": {
              "x": 0.6013,
              "y": -2.1408,
              "z": 0.3461
            }
          },
          {
            "elSymbol": "H",
            "p3d": {
              "x": 1.2113,
              "y": -1.6946,
              "z": 1.9559
            }
          },
          {
            "elSymbol": "H",
            "p3d": {
              "x": 2.1541,
              "y": 1.1435,
              "z": 1.2119
            }
          },
          {
            "elSymbol": "H",
            "p3d": {
              "x": 0.6143,
              "y": 1.976,
              "z": 1.5626
            }
          },
          {
            "elSymbol": "H",
            "p3d": {
              "x": 1.2058,
              "y": 0.7088,
              "z": 2.6868
            }
          },
          {
            "elSymbol": "H",
            "p3d": {
              "x": -0.6215,
              "y": -0.1789,
              "z": 1.2377
            }
          }
        ],
        "bonds": [
          {
            "atomIds": [
              0,
              1
            ],
            "bo": "SINGLE"
          },
          {
            "atomIds": [
              1,
              2
            ],
            "bo": "SINGLE"
          },
          {
            "atomIds": [
              2,
              3
            ],
            "bo": "SINGLE"
          },
          {
            "atomIds": [
              2,
              4
            ],
            "bo": "SINGLE"
          },
          {
            "atomIds": [
              2,
              5
            ],
            "bo": "SINGLE"
          },
          {
            "atomIds": [
              0,
              6
            ],
            "bo": "SINGLE"
          },
          {
            "atomIds": [
              0,
              7
            ],
            "bo": "SINGLE"
          },
          {
            "atomIds": [
              0,
              8
            ],
            "bo": "SINGLE"
          },
          {
            "atomIds": [
              1,
              9
            ],
            "bo": "SINGLE"
          }
        ]
      },
      "vertexId": 93082,
      "buildingBlockId": 32,
      "buildingBlockType": "FRAGMENT",
      "isRCV": false,
      "properties": {
        "ATTACHMENT_POINTS": "2#SubRM:1:SINGLE:0.2868%0.3850%-0.6430 "
      },
      "uniquefyingPropertyKeys": [],
      "allowedMutationTypes": [
        "DELETE",
        "EXTEND",
        "CHANGEBRANCH",
        "CHANGELINK",
        "ADDLINK",
        "DELETELINK",
        "DELETECHAIN"
      ],
      "vertexType": "MolecularFragment"
    },
    {
      "lstAPs": [
        {
          "id": 122498,
          "atomPositionNumber": 0,
          "atomPositionNumberInMol": 29,
          "apClass": {
            "rule": "LImidazolylideneSubCS",
            "subClass": 1,
            "bndTyp": "SINGLE"
          },
          "dirVec": {
            "x": -0.1277,
            "y": 4.1125,
            "z": 2.0278
          }
        }
      ],
      "lstSymAPs": [],
      "mol": {
        "atoms": [
          {
            "elSymbol": "C",
            "p3d": {
              "x": -1.5227,
              "y": 4.6114,
              "z": 1.6409
            }
          },
          {
            "elSymbol": "H",
            "p3d": {
              "x": -1.4627,
              "y": 5.218,
              "z": 0.7489
            }
          },
          {
            "elSymbol": "H",
            "p3d": {
              "x": -1.9308,
              "y": 5.2054,
              "z": 2.4549
            }
          },
          {
            "elSymbol": "H",
            "p3d": {
              "x": -2.1725,
              "y": 3.7579,
              "z": 1.4674
            }
          }
        ],
        "bonds": [
          {
            "atomIds": [
              1,
              0
            ],
            "bo": "SINGLE"
          },
          {
            "atomIds": [
              2,
              0
            ],
            "bo": "SINGLE"
          },
          {
            "atomIds": [
              3,
              0
            ],
            "bo": "SINGLE"
          }
        ]
      },
      "vertexId": 93081,
      "buildingBlockId": 19,
      "buildingBlockType": "FRAGMENT",
      "isRCV": false,
      "properties": {
        "ATTACHMENT_POINTS": "1#LImidazolylideneSubCS:1:SINGLE:-0.1277%4.1125%2.0278 "
      },
      "uniquefyingPropertyKeys": [],
      "allowedMutationTypes": [
        "DELETE",
        "EXTEND",
        "CHANGEBRANCH",
        "CHANGELINK",
        "ADDLINK",
        "DELETELINK",
        "DELETECHAIN"
      ],
      "vertexType": "MolecularFragment"
    },
    {
      "lstAPs": [
        {
          "id": 122499,
          "atomPositionNumber": 1,
          "atomPositionNumberInMol": 34,
          "apClass": {
            "rule": "SubRM",
            "subClass": 1,
            "bndTyp": "SINGLE"
          },
          "dirVec": {
            "x": 0.2868,
            "y": 0.385,
            "z": -0.643
          }
        }
      ],
      "lstSymAPs": [],
      "mol": {
        "atoms": [
          {
            "elSymbol": "C",
            "p3d": {
              "x": 1.141,
              "y": 1.0262,
              "z": 1.6347
            }
          },
          {
            "elSymbol": "C",
            "p3d": {
              "x": 0.3967,
              "y": -0.0479,
              "z": 0.8227
            }
          },
          {
            "elSymbol": "C",
            "p3d": {
              "x": 1.1459,
              "y": -1.371,
              "z": 0.9201
            }
          },
          {
            "elSymbol": "H",
            "p3d": {
              "x": 2.1461,
              "y": -1.2583,
              "z": 0.4976
            }
          },
          {
            "elSymbol": "H",
            "p3d": {
              "x": 0.6013,
              "y": -2.1408,
              "z": 0.3461
            }
          },
          {
            "elSymbol": "H",
            "p3d": {
              "x": 1.2113,
              "y": -1.6946,
              "z": 1.9559
            }
          },
          {
            "elSymbol": "H",
            "p3d": {
              "x": 2.1541,
              "y": 1.1435,
              "z": 1.2119
            }
          },
          {
            "elSymbol": "H",
            "p3d": {
              "x": 0.6143,
              "y": 1.976,
              "z": 1.5626
            }
          },
          {
            "elSymbol": "H",
            "p3d": {
              "x": 1.2058,
              "y": 0.7088,
              "z": 2.6868
            }
          },
          {
            "elSymbol": "H",
            "p3d": {
              "x": -0.6215,
              "y": -0.1789,
              "z": 1.2377
            }
          }
        ],
        "bonds": [
          {
            "atomIds": [
              0,
              1
            ],
            "bo": "SINGLE"
          },
          {
            "atomIds": [
              1,
              2
            ],
            "bo": "SINGLE"
          },
          {
            "atomIds": [
              2,
              3
            ],
            "bo": "SINGLE"
          },
          {
            "atomIds": [
              2,
              4
            ],
            "bo": "SINGLE"
          },
          {
            "atomIds": [
              2,
              5
            ],
            "bo": "SINGLE"
          },
          {
            "atomIds": [
              0,
              6
            ],
            "bo": "SINGLE"
          },
          {
            "atomIds": [
              0,
              7
            ],
            "bo": "SINGLE"
          },
          {
            "atomIds": [
              0,
              8
            ],
            "bo": "SINGLE"
          },
          {
            "atomIds": [
              1,
              9
            ],
            "bo": "SINGLE"
          }
        ]
      },
      "vertexId": 92883,
      "buildingBlockId": 32,
      "buildingBlockType": "FRAGMENT",
      "isRCV": false,
      "properties": {
        "ATTACHMENT_POINTS": "2#SubRM:1:SINGLE:0.2868%0.3850%-0.6430 "
      },
      "uniquefyingPropertyKeys": [],
      "allowedMutationTypes": [
        "DELETE",
        "EXTEND",
        "CHANGEBRANCH",
        "CHANGELINK",
        "ADDLINK",
        "DELETELINK",
        "DELETECHAIN"
      ],
      "vertexType": "MolecularFragment"
    }
  ],
  "gEdges": [
    {
      "srcAPID": 122444,
      "trgAPID": 122447,
      "bondType": "SINGLE"
    },
    {
      "srcAPID": 122446,
      "trgAPID": 122448,
      "bondType": "SINGLE"
    },
    {
      "srcAPID": 122445,
      "trgAPID": 122453,
      "bondType": "SINGLE"
    },
    {
      "srcAPID": 122450,
      "trgAPID": 122496,
      "bondType": "SINGLE"
    },
    {
      "srcAPID": 122452,
      "trgAPID": 122497,
      "bondType": "SINGLE"
    },
    {
      "srcAPID": 122451,
      "trgAPID": 122498,
      "bondType": "SINGLE"
    },
    {
      "srcAPID": 122449,
      "trgAPID": 122499,
      "bondType": "SINGLE"
    }
  ],
  "gRings": [],
  "symVertices": [
    {
      "symIds": [
        93082,
        92883
      ]
    },
    {
      "symIds": [
        92893,
        93081
      ]
    }
  ]
}

> <SMILES>
[Pt](C#O)(OC([H])([H])[H])([C]1N(C(=C(N1C(C([H])([H])[H])(C([H])([H])[H])[H])C([H])([H])[H])C([H])([H])[H])C(C([H])([H])[H])(C([H])([H])[H])[H])C#N

$$$$
