M00002346
  CDK     04222209323D

 44 46  0  0  0  0  0  0  0  0999 V2000
   -2.2945    0.4427    0.3311 Pt  0  0  0  0  0  0  0  0  0  0  0  0
   -4.2270    0.5606    0.4228 C   0  0  0  0  0  0  0  0  0  0  0  0
   -5.3688    0.5934    0.4957 O   0  0  0  0  0  0  0  0  0  0  0  0
   -1.4560    2.0227   -0.7190 O   0  0  0  0  0  0  0  0  0  0  0  0
   -2.4153    2.9546   -1.1592 C   0  0  0  0  0  0  0  0  0  0  0  0
   -2.9583    3.3590   -0.2959 H   0  0  0  0  0  0  0  0  0  0  0  0
   -3.1016    2.4675   -1.8635 H   0  0  0  0  0  0  0  0  0  0  0  0
   -1.8626    3.7570   -1.6658 H   0  0  0  0  0  0  0  0  0  0  0  0
   -0.0209    0.2569    0.3309 P   0  0  0  0  0  0  0  0  0  0  0  0
    0.7375   -1.3701    0.8186 C   0  0  0  0  0  0  0  0  0  0  0  0
    0.4922   -2.1496    1.9329 C   0  0  0  0  0  0  0  0  0  0  0  0
    1.2193   -3.3463    2.0750 C   0  0  0  0  0  0  0  0  0  0  0  0
    2.1542   -3.7252    1.1110 C   0  0  0  0  0  0  0  0  0  0  0  0
    2.3870   -2.9294   -0.0224 C   0  0  0  0  0  0  0  0  0  0  0  0
    1.6717   -1.7414   -0.1754 C   0  0  0  0  0  0  0  0  0  0  0  0
    1.7813   -0.8047   -1.3175 C   0  0  0  0  0  0  0  0  0  0  0  0
    2.6167   -0.9564   -2.4240 C   0  0  0  0  0  0  0  0  0  0  0  0
    2.5860    0.0120   -3.4416 C   0  0  0  0  0  0  0  0  0  0  0  0
    1.7309    1.1114   -3.3635 C   0  0  0  0  0  0  0  0  0  0  0  0
    0.8824    1.2774   -2.2529 C   0  0  0  0  0  0  0  0  0  0  0  0
    0.9341    0.3260   -1.2524 C   0  0  0  0  0  0  0  0  0  0  0  0
   -0.2500   -1.8721    2.6867 H   0  0  0  0  0  0  0  0  0  0  0  0
    1.0440   -3.9799    2.9436 H   0  0  0  0  0  0  0  0  0  0  0  0
    2.7119   -4.6544    1.2337 H   0  0  0  0  0  0  0  0  0  0  0  0
    3.1142   -3.2430   -0.7682 H   0  0  0  0  0  0  0  0  0  0  0  0
    3.2829   -1.8121   -2.5073 H   0  0  0  0  0  0  0  0  0  0  0  0
    3.2395   -0.1050   -4.3068 H   0  0  0  0  0  0  0  0  0  0  0  0
    1.7125    1.8462   -4.1669 H   0  0  0  0  0  0  0  0  0  0  0  0
    0.1907    2.1282   -2.1939 H   0  0  0  0  0  0  0  0  0  0  0  0
   -0.5444    1.7633    2.5589 C   0  0  0  0  0  0  0  0  0  0  0  0
    0.6135    1.5467    1.5891 C   0  0  0  0  0  0  0  0  0  0  0  0
    1.0101    2.8210    0.8608 C   0  0  0  0  0  0  0  0  0  0  0  0
    1.8893    2.6922    0.2172 H   0  0  0  0  0  0  0  0  0  0  0  0
    1.2549    3.6159    1.5784 H   0  0  0  0  0  0  0  0  0  0  0  0
    0.1890    3.2144    0.2297 H   0  0  0  0  0  0  0  0  0  0  0  0
   -0.2556    2.4775    3.3444 H   0  0  0  0  0  0  0  0  0  0  0  0
   -1.4373    2.1983    2.0690 H   0  0  0  0  0  0  0  0  0  0  0  0
   -0.8627    0.8470    3.0794 H   0  0  0  0  0  0  0  0  0  0  0  0
    1.4972    1.1254    2.1283 H   0  0  0  0  0  0  0  0  0  0  0  0
   -3.0153   -1.3783    1.5546 S   0  0  0  0  0  0  0  0  0  0  0  0
   -2.7566   -2.6371    0.2747 C   0  0  0  0  0  0  0  0  0  0  0  0
   -1.7987   -3.1463    0.4297 H   0  0  0  0  0  0  0  0  0  0  0  0
   -2.7565   -2.1870   -0.7254 H   0  0  0  0  0  0  0  0  0  0  0  0
   -3.5613   -3.3788    0.3254 H   0  0  0  0  0  0  0  0  0  0  0  0
  2  3  3  0  0  0  0
  1  2  1  0  0  0  0
  5  6  1  0  0  0  0
  5  7  1  0  0  0  0
  5  8  1  0  0  0  0
  4  5  1  0  0  0  0
  1  4  1  0  0  0  0
  9 10  1  0  0  0  0
 10 11  2  0  0  0  0
 11 12  1  0  0  0  0
 12 13  2  0  0  0  0
 13 14  1  0  0  0  0
 14 15  2  0  0  0  0
 15 10  1  0  0  0  0
 16 15  1  0  0  0  0
 16 21  1  0  0  0  0
 17 16  2  0  0  0  0
 18 17  1  0  0  0  0
 19 18  2  0  0  0  0
 20 19  1  0  0  0  0
 20 21  2  0  0  0  0
 21  9  1  0  0  0  0
 22 11  1  0  0  0  0
 23 12  1  0  0  0  0
 24 13  1  0  0  0  0
 25 14  1  0  0  0  0
 26 17  1  0  0  0  0
 27 18  1  0  0  0  0
 28 19  1  0  0  0  0
 29 20  1  0  0  0  0
  1  9  1  0  0  0  0
 30 31  1  0  0  0  0
 31 32  1  0  0  0  0
 32 33  1  0  0  0  0
 32 34  1  0  0  0  0
 32 35  1  0  0  0  0
 30 36  1  0  0  0  0
 30 37  1  0  0  0  0
 30 38  1  0  0  0  0
 31 39  1  0  0  0  0
  9 31  1  0  0  0  0
 41 42  1  0  0  0  0
 41 43  1  0  0  0  0
 41 44  1  0  0  0  0
 40 41  1  0  0  0  0
  1 40  1  0  0  0  0
M  END
> <PM6_ENERGY>
-130.316

> <UID>
BGQUNNWESPDDHC-JPQPBGRGNA-M

> <FITNESS>
1.14459

> <GCODE>
2999

> <GraphENC>
2999 72_1_0,80_65_1,117_57_1,85_64_1,56868_33_1, 72_0_80_0_SINGLE_Xlig:0_Xlig:1,72_2_117_1_SINGLE_scaff:0_MPhosphole:1,72_1_85_0_SINGLE_Xlig:0_Xlig:1,117_0_56868_0_SINGLE_LPhospholeSubR:0_SubRM:1, 

> <GraphJson>
{
  "graphId": 2999,
  "gVertices": [
    {
      "lstAPs": [
        {
          "id": 75560,
          "atomPositionNumber": 0,
          "atomPositionNumberInMol": 0,
          "apClass": {
            "rule": "Xlig",
            "subClass": 0,
            "bndTyp": "SINGLE"
          },
          "dirVec": {
            "x": -2.3339,
            "y": -0.0087,
            "z": 0.8172
          }
        },
        {
          "id": 75561,
          "atomPositionNumber": 0,
          "atomPositionNumberInMol": 0,
          "apClass": {
            "rule": "Xlig",
            "subClass": 0,
            "bndTyp": "SINGLE"
          },
          "dirVec": {
            "x": 2.336,
            "y": -5.0E-4,
            "z": 0.829
          }
        },
        {
          "id": 75562,
          "atomPositionNumber": 0,
          "atomPositionNumberInMol": 0,
          "apClass": {
            "rule": "scaff",
            "subClass": 0,
            "bndTyp": "SINGLE"
          },
          "dirVec": {
            "x": -0.0095,
            "y": 0.0046,
            "z": -1.7113
          }
        }
      ],
      "lstSymAPs": [
        {
          "symIds": [
            0,
            1
          ]
        }
      ],
      "mol": {
        "atoms": [
          {
            "elSymbol": "Pt",
            "p3d": {
              "x": -0.0098,
              "y": 0.0049,
              "z": 0.6289
            }
          },
          {
            "elSymbol": "C",
            "p3d": {
              "x": -6.0E-4,
              "y": 0.0016,
              "z": 2.5609
            }
          },
          {
            "elSymbol": "O",
            "p3d": {
              "x": 0.0025,
              "y": -0.0041,
              "z": 3.6974
            }
          },
          {
            "elSymbol": "Du",
            "p3d": {
              "x": -0.007,
              "y": 1.0013,
              "z": 0.6372
            }
          },
          {
            "elSymbol": "Du",
            "p3d": {
              "x": -0.0014,
              "y": 0.9902,
              "z": 2.5698
            }
          }
        ],
        "bonds": [
          {
            "atomIds": [
              1,
              2
            ],
            "bo": "TRIPLE"
          },
          {
            "atomIds": [
              0,
              1
            ],
            "bo": "SINGLE"
          },
          {
            "atomIds": [
              3,
              0
            ],
            "bo": "SINGLE"
          },
          {
            "atomIds": [
              4,
              1
            ],
            "bo": "SINGLE"
          }
        ]
      },
      "vertexId": 72,
      "buildingBlockId": 0,
      "buildingBlockType": "SCAFFOLD",
      "isRCV": false,
      "properties": {
        "ATTACHMENT_POINTS": "1#Xlig:0:SINGLE:-2.3339%-0.0087%0.8172,Xlig:0:SINGLE:2.3360%-0.0005%0.8290,scaff:0:SINGLE:-0.0095%0.0046%-1.7113 "
      },
      "uniquefyingPropertyKeys": [],
      "allowedMutationTypes": [
        "DELETE",
        "EXTEND",
        "CHANGEBRANCH",
        "CHANGELINK",
        "ADDLINK",
        "DELETELINK",
        "DELETECHAIN"
      ],
      "vertexType": "MolecularFragment"
    },
    {
      "lstAPs": [
        {
          "id": 75563,
          "atomPositionNumber": 0,
          "atomPositionNumberInMol": 5,
          "apClass": {
            "rule": "Xlig",
            "subClass": 1,
            "bndTyp": "SINGLE"
          },
          "dirVec": {
            "x": -0.1753,
            "y": 0.0948,
            "z": -0.4464
          }
        }
      ],
      "lstSymAPs": [],
      "mol": {
        "atoms": [
          {
            "elSymbol": "O",
            "p3d": {
              "x": -0.3534,
              "y": 2.1044,
              "z": -0.7339
            }
          },
          {
            "elSymbol": "C",
            "p3d": {
              "x": -0.5345,
              "y": 2.7646,
              "z": 0.4801
            }
          },
          {
            "elSymbol": "H",
            "p3d": {
              "x": -0.3728,
              "y": 3.8337,
              "z": 0.2724
            }
          },
          {
            "elSymbol": "H",
            "p3d": {
              "x": 0.1816,
              "y": 2.4161,
              "z": 1.2384
            }
          },
          {
            "elSymbol": "H",
            "p3d": {
              "x": -1.553,
              "y": 2.6149,
              "z": 0.8489
            }
          }
        ],
        "bonds": [
          {
            "atomIds": [
              1,
              2
            ],
            "bo": "SINGLE"
          },
          {
            "atomIds": [
              1,
              3
            ],
            "bo": "SINGLE"
          },
          {
            "atomIds": [
              1,
              4
            ],
            "bo": "SINGLE"
          },
          {
            "atomIds": [
              0,
              1
            ],
            "bo": "SINGLE"
          }
        ]
      },
      "vertexId": 80,
      "buildingBlockId": 64,
      "buildingBlockType": "FRAGMENT",
      "isRCV": false,
      "properties": {
        "ATTACHMENT_POINTS": "1#Xlig:1:SINGLE:-0.1753%0.0948%-0.4464 "
      },
      "uniquefyingPropertyKeys": [],
      "allowedMutationTypes": [
        "DELETE",
        "EXTEND",
        "CHANGEBRANCH",
        "CHANGELINK",
        "ADDLINK",
        "DELETELINK",
        "DELETECHAIN"
      ],
      "vertexType": "MolecularFragment"
    },
    {
      "lstAPs": [
        {
          "id": 75564,
          "atomPositionNumber": 0,
          "atomPositionNumberInMol": 10,
          "apClass": {
            "rule": "LPhospholeSubR",
            "subClass": 0,
            "bndTyp": "SINGLE"
          },
          "dirVec": {
            "x": 8.2979,
            "y": 3.6599,
            "z": 9.907
          }
        },
        {
          "id": 75565,
          "atomPositionNumber": 0,
          "atomPositionNumberInMol": 10,
          "apClass": {
            "rule": "MPhosphole",
            "subClass": 1,
            "bndTyp": "SINGLE"
          },
          "dirVec": {
            "x": 8.1114,
            "y": 1.563,
            "z": 6.7555
          }
        }
      ],
      "lstSymAPs": [],
      "mol": {
        "atoms": [
          {
            "elSymbol": "P",
            "p3d": {
              "x": 7.3852,
              "y": 3.3353,
              "z": 8.349
            }
          },
          {
            "elSymbol": "C",
            "p3d": {
              "x": 7.2878,
              "y": 5.0039,
              "z": 7.6394
            }
          },
          {
            "elSymbol": "C",
            "p3d": {
              "x": 8.2867,
              "y": 5.7253,
              "z": 7.0209
            }
          },
          {
            "elSymbol": "C",
            "p3d": {
              "x": 7.9761,
              "y": 6.9837,
              "z": 6.5025
            }
          },
          {
            "elSymbol": "C",
            "p3d": {
              "x": 6.7261,
              "y": 7.4825,
              "z": 6.6338
            }
          },
          {
            "elSymbol": "C",
            "p3d": {
              "x": 5.742,
              "y": 6.7839,
              "z": 7.2506
            }
          },
          {
            "elSymbol": "C",
            "p3d": {
              "x": 6.0001,
              "y": 5.545,
              "z": 7.7891
            }
          },
          {
            "elSymbol": "C",
            "p3d": {
              "x": 5.0707,
              "y": 4.6709,
              "z": 8.5094
            }
          },
          {
            "elSymbol": "C",
            "p3d": {
              "x": 3.7379,
              "y": 4.9022,
              "z": 8.8416
            }
          },
          {
            "elSymbol": "C",
            "p3d": {
              "x": 3.0581,
              "y": 3.9613,
              "z": 9.5076
            }
          },
          {
            "elSymbol": "C",
            "p3d": {
              "x": 3.592,
              "y": 2.7603,
              "z": 9.8266
            }
          },
          {
            "elSymbol": "C",
            "p3d": {
              "x": 4.9369,
              "y": 2.494,
              "z": 9.5465
            }
          },
          {
            "elSymbol": "C",
            "p3d": {
              "x": 5.6287,
              "y": 3.4387,
              "z": 8.8671
            }
          },
          {
            "elSymbol": "H",
            "p3d": {
              "x": 9.3019,
              "y": 5.3077,
              "z": 6.9257
            }
          },
          {
            "elSymbol": "H",
            "p3d": {
              "x": 8.7469,
              "y": 7.56,
              "z": 6.0141
            }
          },
          {
            "elSymbol": "H",
            "p3d": {
              "x": 6.5026,
              "y": 8.4647,
              "z": 6.2206
            }
          },
          {
            "elSymbol": "H",
            "p3d": {
              "x": 4.7435,
              "y": 7.2295,
              "z": 7.3444
            }
          },
          {
            "elSymbol": "H",
            "p3d": {
              "x": 3.2597,
              "y": 5.842,
              "z": 8.5703
            }
          },
          {
            "elSymbol": "H",
            "p3d": {
              "x": 2.0248,
              "y": 4.1573,
              "z": 9.8149
            }
          },
          {
            "elSymbol": "H",
            "p3d": {
              "x": 2.9835,
              "y": 2.0,
              "z": 10.2956
            }
          },
          {
            "elSymbol": "H",
            "p3d": {
              "x": 5.394,
              "y": 1.5535,
              "z": 9.8429
            }
          }
        ],
        "bonds": [
          {
            "atomIds": [
              0,
              1
            ],
            "bo": "SINGLE"
          },
          {
            "atomIds": [
              1,
              2
            ],
            "bo": "DOUBLE"
          },
          {
            "atomIds": [
              2,
              3
            ],
            "bo": "SINGLE"
          },
          {
            "atomIds": [
              3,
              4
            ],
            "bo": "DOUBLE"
          },
          {
            "atomIds": [
              4,
              5
            ],
            "bo": "SINGLE"
          },
          {
            "atomIds": [
              5,
              6
            ],
            "bo": "DOUBLE"
          },
          {
            "atomIds": [
              6,
              1
            ],
            "bo": "SINGLE"
          },
          {
            "atomIds": [
              7,
              6
            ],
            "bo": "SINGLE"
          },
          {
            "atomIds": [
              7,
              12
            ],
            "bo": "SINGLE"
          },
          {
            "atomIds": [
              8,
              7
            ],
            "bo": "DOUBLE"
          },
          {
            "atomIds": [
              9,
              8
            ],
            "bo": "SINGLE"
          },
          {
            "atomIds": [
              10,
              9
            ],
            "bo": "DOUBLE"
          },
          {
            "atomIds": [
              11,
              10
            ],
            "bo": "SINGLE"
          },
          {
            "atomIds": [
              11,
              12
            ],
            "bo": "DOUBLE"
          },
          {
            "atomIds": [
              12,
              0
            ],
            "bo": "SINGLE"
          },
          {
            "atomIds": [
              13,
              2
            ],
            "bo": "SINGLE"
          },
          {
            "atomIds": [
              14,
              3
            ],
            "bo": "SINGLE"
          },
          {
            "atomIds": [
              15,
              4
            ],
            "bo": "SINGLE"
          },
          {
            "atomIds": [
              16,
              5
            ],
            "bo": "SINGLE"
          },
          {
            "atomIds": [
              17,
              8
            ],
            "bo": "SINGLE"
          },
          {
            "atomIds": [
              18,
              9
            ],
            "bo": "SINGLE"
          },
          {
            "atomIds": [
              19,
              10
            ],
            "bo": "SINGLE"
          },
          {
            "atomIds": [
              20,
              11
            ],
            "bo": "SINGLE"
          }
        ]
      },
      "vertexId": 117,
      "buildingBlockId": 56,
      "buildingBlockType": "FRAGMENT",
      "isRCV": false,
      "properties": {
        "ATTACHMENT_POINTS": "1#LPhospholeSubR:0:SINGLE:8.2979%3.6599%9.9070,MPhosphole:1:SINGLE:8.1114%1.5630%6.7555 "
      },
      "uniquefyingPropertyKeys": [],
      "allowedMutationTypes": [
        "DELETE",
        "EXTEND",
        "CHANGEBRANCH",
        "CHANGELINK",
        "ADDLINK",
        "DELETELINK",
        "DELETECHAIN"
      ],
      "vertexType": "MolecularFragment"
    },
    {
      "lstAPs": [
        {
          "id": 75566,
          "atomPositionNumber": 0,
          "atomPositionNumberInMol": 41,
          "apClass": {
            "rule": "Xlig",
            "subClass": 1,
            "bndTyp": "SINGLE"
          },
          "dirVec": {
            "x": -0.102,
            "y": 0.0185,
            "z": -1.0265
          }
        }
      ],
      "lstSymAPs": [],
      "mol": {
        "atoms": [
          {
            "elSymbol": "S",
            "p3d": {
              "x": -0.3267,
              "y": 2.3403,
              "z": -1.0022
            }
          },
          {
            "elSymbol": "C",
            "p3d": {
              "x": -0.626,
              "y": 2.4866,
              "z": 0.7805
            }
          },
          {
            "elSymbol": "H",
            "p3d": {
              "x": 0.1766,
              "y": 3.089,
              "z": 1.2414
            }
          },
          {
            "elSymbol": "H",
            "p3d": {
              "x": -0.651,
              "y": 1.5065,
              "z": 1.2643
            }
          },
          {
            "elSymbol": "H",
            "p3d": {
              "x": -1.5658,
              "y": 2.981,
              "z": 0.9515
            }
          }
        ],
        "bonds": [
          {
            "atomIds": [
              1,
              2
            ],
            "bo": "SINGLE"
          },
          {
            "atomIds": [
              1,
              3
            ],
            "bo": "SINGLE"
          },
          {
            "atomIds": [
              1,
              4
            ],
            "bo": "SINGLE"
          },
          {
            "atomIds": [
              0,
              1
            ],
            "bo": "SINGLE"
          }
        ]
      },
      "vertexId": 85,
      "buildingBlockId": 63,
      "buildingBlockType": "FRAGMENT",
      "isRCV": false,
      "properties": {
        "ATTACHMENT_POINTS": "1#Xlig:1:SINGLE:-0.1020%0.0185%-1.0265 "
      },
      "uniquefyingPropertyKeys": [],
      "allowedMutationTypes": [
        "DELETE",
        "EXTEND",
        "CHANGEBRANCH",
        "CHANGELINK",
        "ADDLINK",
        "DELETELINK",
        "DELETECHAIN"
      ],
      "vertexType": "MolecularFragment"
    },
    {
      "lstAPs": [
        {
          "id": 75591,
          "atomPositionNumber": 1,
          "atomPositionNumberInMol": 32,
          "apClass": {
            "rule": "SubRM",
            "subClass": 1,
            "bndTyp": "SINGLE"
          },
          "dirVec": {
            "x": 0.2868,
            "y": 0.385,
            "z": -0.643
          }
        }
      ],
      "lstSymAPs": [],
      "mol": {
        "atoms": [
          {
            "elSymbol": "C",
            "p3d": {
              "x": 1.141,
              "y": 1.0262,
              "z": 1.6347
            }
          },
          {
            "elSymbol": "C",
            "p3d": {
              "x": 0.3967,
              "y": -0.0479,
              "z": 0.8227
            }
          },
          {
            "elSymbol": "C",
            "p3d": {
              "x": 1.1459,
              "y": -1.371,
              "z": 0.9201
            }
          },
          {
            "elSymbol": "H",
            "p3d": {
              "x": 2.1461,
              "y": -1.2583,
              "z": 0.4976
            }
          },
          {
            "elSymbol": "H",
            "p3d": {
              "x": 0.6013,
              "y": -2.1408,
              "z": 0.3461
            }
          },
          {
            "elSymbol": "H",
            "p3d": {
              "x": 1.2113,
              "y": -1.6946,
              "z": 1.9559
            }
          },
          {
            "elSymbol": "H",
            "p3d": {
              "x": 2.1541,
              "y": 1.1435,
              "z": 1.2119
            }
          },
          {
            "elSymbol": "H",
            "p3d": {
              "x": 0.6143,
              "y": 1.976,
              "z": 1.5626
            }
          },
          {
            "elSymbol": "H",
            "p3d": {
              "x": 1.2058,
              "y": 0.7088,
              "z": 2.6868
            }
          },
          {
            "elSymbol": "H",
            "p3d": {
              "x": -0.6215,
              "y": -0.1789,
              "z": 1.2377
            }
          }
        ],
        "bonds": [
          {
            "atomIds": [
              0,
              1
            ],
            "bo": "SINGLE"
          },
          {
            "atomIds": [
              1,
              2
            ],
            "bo": "SINGLE"
          },
          {
            "atomIds": [
              2,
              3
            ],
            "bo": "SINGLE"
          },
          {
            "atomIds": [
              2,
              4
            ],
            "bo": "SINGLE"
          },
          {
            "atomIds": [
              2,
              5
            ],
            "bo": "SINGLE"
          },
          {
            "atomIds": [
              0,
              6
            ],
            "bo": "SINGLE"
          },
          {
            "atomIds": [
              0,
              7
            ],
            "bo": "SINGLE"
          },
          {
            "atomIds": [
              0,
              8
            ],
            "bo": "SINGLE"
          },
          {
            "atomIds": [
              1,
              9
            ],
            "bo": "SINGLE"
          }
        ]
      },
      "vertexId": 56868,
      "buildingBlockId": 32,
      "buildingBlockType": "FRAGMENT",
      "isRCV": false,
      "properties": {
        "ATTACHMENT_POINTS": "2#SubRM:1:SINGLE:0.2868%0.3850%-0.6430 "
      },
      "uniquefyingPropertyKeys": [],
      "allowedMutationTypes": [
        "DELETE",
        "EXTEND",
        "CHANGEBRANCH",
        "CHANGELINK",
        "ADDLINK",
        "DELETELINK",
        "DELETECHAIN"
      ],
      "vertexType": "MolecularFragment"
    }
  ],
  "gEdges": [
    {
      "srcAPID": 75560,
      "trgAPID": 75563,
      "bondType": "SINGLE"
    },
    {
      "srcAPID": 75562,
      "trgAPID": 75565,
      "bondType": "SINGLE"
    },
    {
      "srcAPID": 75561,
      "trgAPID": 75566,
      "bondType": "SINGLE"
    },
    {
      "srcAPID": 75564,
      "trgAPID": 75591,
      "bondType": "SINGLE"
    }
  ],
  "gRings": [],
  "symVertices": []
}

> <SMILES>
[Pt](C#O)(OC([H])([H])[H])([P]1(C2=C(C(=C(C(=C2C=3C1=C(C(=C(C3[H])[H])[H])[H])[H])[H])[H])[H])C(C([H])([H])[H])(C([H])([H])[H])[H])SC([H])([H])[H]

$$$$
