M00006693
  CDK     04222211073D

 56 58  0  0  0  0  0  0  0  0999 V2000
   -2.4389   -0.0338   -0.4404 Pt  0  0  0  0  0  0  0  0  0  0  0  0
   -4.4092   -0.1167   -0.3286 C   0  0  0  0  0  0  0  0  0  0  0  0
   -5.5442   -0.2124   -0.2795 O   0  0  0  0  0  0  0  0  0  0  0  0
   -2.3361    1.8761    0.1457 C   0  0  0  0  0  0  0  0  0  0  0  0
   -2.3796    2.9830    0.4773 N   0  0  0  0  0  0  0  0  0  0  0  0
   -0.1669   -0.0258   -0.5621 P   0  0  0  0  0  0  0  0  0  0  0  0
    0.1378   -2.3492   -2.1325 C   0  0  0  0  0  0  0  0  0  0  0  0
    0.8572   -2.3066   -2.9854 H   0  0  0  0  0  0  0  0  0  0  0  0
   -0.8451   -1.9968   -2.5211 H   0  0  0  0  0  0  0  0  0  0  0  0
    0.0161   -3.8022   -1.6393 C   0  0  0  0  0  0  0  0  0  0  0  0
   -0.7803   -3.9229   -0.8768 H   0  0  0  0  0  0  0  0  0  0  0  0
   -0.1438   -4.5127   -2.4693 H   0  0  0  0  0  0  0  0  0  0  0  0
    1.7002   -3.4497    0.0322 C   0  0  0  0  0  0  0  0  0  0  0  0
    2.6523   -3.9302    0.3205 H   0  0  0  0  0  0  0  0  0  0  0  0
    0.9683   -3.5315    0.8537 H   0  0  0  0  0  0  0  0  0  0  0  0
    1.8988   -1.9919   -0.4260 C   0  0  0  0  0  0  0  0  0  0  0  0
    2.2338   -1.3649    0.4341 H   0  0  0  0  0  0  0  0  0  0  0  0
    2.7105   -1.9586   -1.1930 H   0  0  0  0  0  0  0  0  0  0  0  0
    0.6436   -1.4872   -1.0338 N   0  0  0  0  0  0  0  0  0  0  0  0
    1.2656   -4.2591   -1.0755 O   0  0  0  0  0  0  0  0  0  0  0  0
    0.5527    0.3584    1.1563 C   0  0  0  0  0  0  0  0  0  0  0  0
    1.3871    2.0572    2.8029 C   0  0  0  0  0  0  0  0  0  0  0  0
    0.0409    0.0628    3.6035 C   0  0  0  0  0  0  0  0  0  0  0  0
    0.3863    1.5385    3.8445 C   0  0  0  0  0  0  0  0  0  0  0  0
   -0.4751   -0.1655    2.1711 C   0  0  0  0  0  0  0  0  0  0  0  0
    0.8562    1.8430    1.3748 C   0  0  0  0  0  0  0  0  0  0  0  0
    2.3624    1.5521    2.9299 H   0  0  0  0  0  0  0  0  0  0  0  0
    0.9314   -0.5668    3.7893 H   0  0  0  0  0  0  0  0  0  0  0  0
   -0.5384    2.1496    3.8066 H   0  0  0  0  0  0  0  0  0  0  0  0
   -1.4562    0.3557    2.0611 H   0  0  0  0  0  0  0  0  0  0  0  0
   -0.0499    2.4731    1.2424 H   0  0  0  0  0  0  0  0  0  0  0  0
    1.5140   -0.2134    1.2823 H   0  0  0  0  0  0  0  0  0  0  0  0
    1.5754    3.1355    2.9696 H   0  0  0  0  0  0  0  0  0  0  0  0
   -0.7245   -0.2670    4.3317 H   0  0  0  0  0  0  0  0  0  0  0  0
    0.7968    1.6697    4.8629 H   0  0  0  0  0  0  0  0  0  0  0  0
   -0.6750   -1.2483    2.0305 H   0  0  0  0  0  0  0  0  0  0  0  0
    1.5968    2.2271    0.6422 H   0  0  0  0  0  0  0  0  0  0  0  0
    1.7446    1.4372   -2.0522 C   0  0  0  0  0  0  0  0  0  0  0  0
    1.9497    1.1660   -3.1165 H   0  0  0  0  0  0  0  0  0  0  0  0
    2.4456    0.8445   -1.4308 H   0  0  0  0  0  0  0  0  0  0  0  0
    1.9827    2.9482   -1.8542 C   0  0  0  0  0  0  0  0  0  0  0  0
    1.8844    3.2396   -0.7896 H   0  0  0  0  0  0  0  0  0  0  0  0
    2.9570    3.2787   -2.2545 H   0  0  0  0  0  0  0  0  0  0  0  0
   -0.3309    3.4319   -2.3234 C   0  0  0  0  0  0  0  0  0  0  0  0
   -0.8705    4.0797   -3.0368 H   0  0  0  0  0  0  0  0  0  0  0  0
   -0.5347    3.7597   -1.2878 H   0  0  0  0  0  0  0  0  0  0  0  0
   -0.6377    1.9371   -2.5387 C   0  0  0  0  0  0  0  0  0  0  0  0
   -1.6966    1.7072   -2.2731 H   0  0  0  0  0  0  0  0  0  0  0  0
   -0.5134    1.6837   -3.6194 H   0  0  0  0  0  0  0  0  0  0  0  0
    0.3265    1.1351   -1.7438 N   0  0  0  0  0  0  0  0  0  0  0  0
    1.0507    3.7084   -2.6453 O   0  0  0  0  0  0  0  0  0  0  0  0
   -3.1033   -2.1808   -1.0831 S   0  0  0  0  0  0  0  0  0  0  0  0
   -2.7475   -3.0429    0.4741 C   0  0  0  0  0  0  0  0  0  0  0  0
   -3.5440   -3.7701    0.6736 H   0  0  0  0  0  0  0  0  0  0  0  0
   -2.6901   -2.3461    1.3158 H   0  0  0  0  0  0  0  0  0  0  0  0
   -1.7931   -3.5859    0.3839 H   0  0  0  0  0  0  0  0  0  0  0  0
  2  3  3  0  0  0  0
  1  2  1  0  0  0  0
  4  5  3  0  0  0  0
  1  4  1  0  0  0  0
  1  6  1  0  0  0  0
  7  8  1  0  0  0  0
  9  7  1  0  0  0  0
 10  7  1  0  0  0  0
 11 10  1  0  0  0  0
 12 10  1  0  0  0  0
 13 14  1  0  0  0  0
 15 13  1  0  0  0  0
 16 13  1  0  0  0  0
 17 16  1  0  0  0  0
 18 16  1  0  0  0  0
 19  7  1  0  0  0  0
 20 10  1  0  0  0  0
 13 20  1  0  0  0  0
 16 19  1  0  0  0  0
  6 19  1  0  0  0  0
 21 32  1  0  0  0  0
 21 25  1  0  0  0  0
 21 26  1  0  0  0  0
 22 27  1  0  0  0  0
 22 33  1  0  0  0  0
 22 24  1  0  0  0  0
 22 26  1  0  0  0  0
 23 28  1  0  0  0  0
 23 34  1  0  0  0  0
 23 25  1  0  0  0  0
 23 24  1  0  0  0  0
 24 29  1  0  0  0  0
 24 35  1  0  0  0  0
 25 30  1  0  0  0  0
 25 36  1  0  0  0  0
 26 31  1  0  0  0  0
 26 37  1  0  0  0  0
  6 21  1  0  0  0  0
 38 39  1  0  0  0  0
 40 38  1  0  0  0  0
 41 38  1  0  0  0  0
 42 41  1  0  0  0  0
 43 41  1  0  0  0  0
 44 45  1  0  0  0  0
 46 44  1  0  0  0  0
 47 44  1  0  0  0  0
 48 47  1  0  0  0  0
 49 47  1  0  0  0  0
 50 38  1  0  0  0  0
 51 41  1  0  0  0  0
 44 51  1  0  0  0  0
 47 50  1  0  0  0  0
  6 50  1  0  0  0  0
 53 54  1  0  0  0  0
 53 55  1  0  0  0  0
 53 56  1  0  0  0  0
 52 53  1  0  0  0  0
  1 52  1  0  0  0  0
M  END
> <PM6_ENERGY>
-448.905

> <UID>
RLTFFFAZDJLIRL-KXFCDVPQNA-M

> <FITNESS>
1.14009

> <GCODE>
7524

> <GraphENC>
7524 72_1_0,81_66_1,100_3_1,85_64_1,151935_9_1,151632_35_1,151622_9_1, 72_0_81_0_SINGLE_Xlig:0_Xlig:1,72_2_100_3_SINGLE_scaff:0_MBisAminoPhosphine:1,72_1_85_0_SINGLE_Xlig:0_Xlig:1,100_1_151935_0_SINGLE_LBisAminoPhosphineN:0_LAminoPhosphineCycloN:1,100_2_151632_0_SINGLE_LBisAminoPhosphineSubR:0_SubRM:1,100_0_151622_0_SINGLE_LBisAminoPhosphineN:0_LAminoPhosphineCycloN:1, SymmetricSet [symIds=[151935, 151622]] 

> <GraphJson>
{
  "graphId": 7524,
  "gVertices": [
    {
      "lstAPs": [
        {
          "id": 198679,
          "atomPositionNumber": 0,
          "atomPositionNumberInMol": 0,
          "apClass": {
            "rule": "Xlig",
            "subClass": 0,
            "bndTyp": "SINGLE"
          },
          "dirVec": {
            "x": -2.3339,
            "y": -0.0087,
            "z": 0.8172
          }
        },
        {
          "id": 198680,
          "atomPositionNumber": 0,
          "atomPositionNumberInMol": 0,
          "apClass": {
            "rule": "Xlig",
            "subClass": 0,
            "bndTyp": "SINGLE"
          },
          "dirVec": {
            "x": 2.336,
            "y": -5.0E-4,
            "z": 0.829
          }
        },
        {
          "id": 198681,
          "atomPositionNumber": 0,
          "atomPositionNumberInMol": 0,
          "apClass": {
            "rule": "scaff",
            "subClass": 0,
            "bndTyp": "SINGLE"
          },
          "dirVec": {
            "x": -0.0095,
            "y": 0.0046,
            "z": -1.7113
          }
        }
      ],
      "lstSymAPs": [
        {
          "symIds": [
            0,
            1
          ]
        }
      ],
      "mol": {
        "atoms": [
          {
            "elSymbol": "Pt",
            "p3d": {
              "x": -0.0098,
              "y": 0.0049,
              "z": 0.6289
            }
          },
          {
            "elSymbol": "C",
            "p3d": {
              "x": -6.0E-4,
              "y": 0.0016,
              "z": 2.5609
            }
          },
          {
            "elSymbol": "O",
            "p3d": {
              "x": 0.0025,
              "y": -0.0041,
              "z": 3.6974
            }
          },
          {
            "elSymbol": "Du",
            "p3d": {
              "x": -0.007,
              "y": 1.0013,
              "z": 0.6372
            }
          },
          {
            "elSymbol": "Du",
            "p3d": {
              "x": -0.0014,
              "y": 0.9902,
              "z": 2.5698
            }
          }
        ],
        "bonds": [
          {
            "atomIds": [
              1,
              2
            ],
            "bo": "TRIPLE"
          },
          {
            "atomIds": [
              0,
              1
            ],
            "bo": "SINGLE"
          },
          {
            "atomIds": [
              3,
              0
            ],
            "bo": "SINGLE"
          },
          {
            "atomIds": [
              4,
              1
            ],
            "bo": "SINGLE"
          }
        ]
      },
      "vertexId": 72,
      "buildingBlockId": 0,
      "buildingBlockType": "SCAFFOLD",
      "isRCV": false,
      "properties": {
        "ATTACHMENT_POINTS": "1#Xlig:0:SINGLE:-2.3339%-0.0087%0.8172,Xlig:0:SINGLE:2.3360%-0.0005%0.8290,scaff:0:SINGLE:-0.0095%0.0046%-1.7113 "
      },
      "uniquefyingPropertyKeys": [],
      "allowedMutationTypes": [
        "DELETE",
        "EXTEND",
        "CHANGEBRANCH",
        "CHANGELINK",
        "ADDLINK",
        "DELETELINK",
        "DELETECHAIN"
      ],
      "vertexType": "MolecularFragment"
    },
    {
      "lstAPs": [
        {
          "id": 198682,
          "atomPositionNumber": 0,
          "atomPositionNumberInMol": 5,
          "apClass": {
            "rule": "Xlig",
            "subClass": 1,
            "bndTyp": "SINGLE"
          },
          "dirVec": {
            "x": 0.0192,
            "y": -0.0048,
            "z": -0.5645
          }
        }
      ],
      "lstSymAPs": [],
      "mol": {
        "atoms": [
          {
            "elSymbol": "C",
            "p3d": {
              "x": -1.967,
              "y": -0.0075,
              "z": -0.4937
            }
          },
          {
            "elSymbol": "N",
            "p3d": {
              "x": -3.1263,
              "y": -0.0054,
              "z": -0.4354
            }
          },
          {
            "elSymbol": "Du",
            "p3d": {
              "x": -1.9744,
              "y": 0.9926,
              "z": -0.5036
            }
          }
        ],
        "bonds": [
          {
            "atomIds": [
              0,
              1
            ],
            "bo": "TRIPLE"
          },
          {
            "atomIds": [
              2,
              0
            ],
            "bo": "SINGLE"
          }
        ]
      },
      "vertexId": 81,
      "buildingBlockId": 65,
      "buildingBlockType": "FRAGMENT",
      "isRCV": false,
      "properties": {
        "ATTACHMENT_POINTS": "1#Xlig:1:SINGLE:0.0192%-0.0048%-0.5645 "
      },
      "uniquefyingPropertyKeys": [],
      "allowedMutationTypes": [
        "DELETE",
        "EXTEND",
        "CHANGEBRANCH",
        "CHANGELINK",
        "ADDLINK",
        "DELETELINK",
        "DELETECHAIN"
      ],
      "vertexType": "MolecularFragment"
    },
    {
      "lstAPs": [
        {
          "id": 198683,
          "atomPositionNumber": 0,
          "atomPositionNumberInMol": 8,
          "apClass": {
            "rule": "LBisAminoPhosphineN",
            "subClass": 0,
            "bndTyp": "SINGLE"
          },
          "dirVec": {
            "x": -1.9272,
            "y": -0.2351,
            "z": 5.6045
          }
        },
        {
          "id": 198684,
          "atomPositionNumber": 0,
          "atomPositionNumberInMol": 8,
          "apClass": {
            "rule": "LBisAminoPhosphineN",
            "subClass": 0,
            "bndTyp": "SINGLE"
          },
          "dirVec": {
            "x": -1.4136,
            "y": -2.2231,
            "z": 3.8983
          }
        },
        {
          "id": 198685,
          "atomPositionNumber": 0,
          "atomPositionNumberInMol": 8,
          "apClass": {
            "rule": "LBisAminoPhosphineSubR",
            "subClass": 0,
            "bndTyp": "SINGLE"
          },
          "dirVec": {
            "x": -3.1852,
            "y": -0.3594,
            "z": 3.1924
          }
        },
        {
          "id": 198686,
          "atomPositionNumber": 0,
          "atomPositionNumberInMol": 8,
          "apClass": {
            "rule": "MBisAminoPhosphine",
            "subClass": 1,
            "bndTyp": "SINGLE"
          },
          "dirVec": {
            "x": 0.1796,
            "y": 0.6567,
            "z": 3.3484
          }
        }
      ],
      "lstSymAPs": [
        {
          "symIds": [
            0,
            1
          ]
        }
      ],
      "mol": {
        "atoms": [
          {
            "elSymbol": "P",
            "p3d": {
              "x": -1.6038,
              "y": -0.5663,
              "z": 4.0324
            }
          }
        ],
        "bonds": []
      },
      "vertexId": 100,
      "buildingBlockId": 2,
      "buildingBlockType": "FRAGMENT",
      "isRCV": false,
      "properties": {
        "ATTACHMENT_POINTS": "1#LBisAminoPhosphineN:0:SINGLE:-1.9272%-0.2351%5.6045,LBisAminoPhosphineN:0:SINGLE:-1.4136%-2.2231%3.8983,LBisAminoPhosphineSubR:0:SINGLE:-3.1852%-0.3594%3.1924,MBisAminoPhosphine:1:SINGLE:0.1796%0.6567%3.3484 "
      },
      "uniquefyingPropertyKeys": [],
      "allowedMutationTypes": [
        "DELETE",
        "EXTEND",
        "CHANGEBRANCH",
        "CHANGELINK",
        "ADDLINK",
        "DELETELINK",
        "DELETECHAIN"
      ],
      "vertexType": "MolecularFragment"
    },
    {
      "lstAPs": [
        {
          "id": 198687,
          "atomPositionNumber": 0,
          "atomPositionNumberInMol": 54,
          "apClass": {
            "rule": "Xlig",
            "subClass": 1,
            "bndTyp": "SINGLE"
          },
          "dirVec": {
            "x": -0.102,
            "y": 0.0185,
            "z": -1.0265
          }
        }
      ],
      "lstSymAPs": [],
      "mol": {
        "atoms": [
          {
            "elSymbol": "S",
            "p3d": {
              "x": -0.3267,
              "y": 2.3403,
              "z": -1.0022
            }
          },
          {
            "elSymbol": "C",
            "p3d": {
              "x": -0.626,
              "y": 2.4866,
              "z": 0.7805
            }
          },
          {
            "elSymbol": "H",
            "p3d": {
              "x": 0.1766,
              "y": 3.089,
              "z": 1.2414
            }
          },
          {
            "elSymbol": "H",
            "p3d": {
              "x": -0.651,
              "y": 1.5065,
              "z": 1.2643
            }
          },
          {
            "elSymbol": "H",
            "p3d": {
              "x": -1.5658,
              "y": 2.981,
              "z": 0.9515
            }
          }
        ],
        "bonds": [
          {
            "atomIds": [
              1,
              2
            ],
            "bo": "SINGLE"
          },
          {
            "atomIds": [
              1,
              3
            ],
            "bo": "SINGLE"
          },
          {
            "atomIds": [
              1,
              4
            ],
            "bo": "SINGLE"
          },
          {
            "atomIds": [
              0,
              1
            ],
            "bo": "SINGLE"
          }
        ]
      },
      "vertexId": 85,
      "buildingBlockId": 63,
      "buildingBlockType": "FRAGMENT",
      "isRCV": false,
      "properties": {
        "ATTACHMENT_POINTS": "1#Xlig:1:SINGLE:-0.1020%0.0185%-1.0265 "
      },
      "uniquefyingPropertyKeys": [],
      "allowedMutationTypes": [
        "DELETE",
        "EXTEND",
        "CHANGEBRANCH",
        "CHANGELINK",
        "ADDLINK",
        "DELETELINK",
        "DELETECHAIN"
      ],
      "vertexType": "MolecularFragment"
    },
    {
      "lstAPs": [
        {
          "id": 198724,
          "atomPositionNumber": 12,
          "atomPositionNumberInMol": 21,
          "apClass": {
            "rule": "LAminoPhosphineCycloN",
            "subClass": 1,
            "bndTyp": "SINGLE"
          },
          "dirVec": {
            "x": 3.8318,
            "y": 4.4705,
            "z": 2.8673
          }
        }
      ],
      "lstSymAPs": [],
      "mol": {
        "atoms": [
          {
            "elSymbol": "C",
            "p3d": {
              "x": 1.6447,
              "y": 5.1042,
              "z": 4.3264
            }
          },
          {
            "elSymbol": "H",
            "p3d": {
              "x": 1.9147,
              "y": 6.0213,
              "z": 4.8479
            }
          },
          {
            "elSymbol": "H",
            "p3d": {
              "x": 1.9986,
              "y": 4.2552,
              "z": 4.9127
            }
          },
          {
            "elSymbol": "C",
            "p3d": {
              "x": 0.1515,
              "y": 5.0176,
              "z": 4.1739
            }
          },
          {
            "elSymbol": "H",
            "p3d": {
              "x": -0.1334,
              "y": 4.0848,
              "z": 3.6797
            }
          },
          {
            "elSymbol": "H",
            "p3d": {
              "x": -0.3255,
              "y": 5.0447,
              "z": 5.1478
            }
          },
          {
            "elSymbol": "C",
            "p3d": {
              "x": 0.2487,
              "y": 6.072,
              "z": 2.1008
            }
          },
          {
            "elSymbol": "H",
            "p3d": {
              "x": -0.1423,
              "y": 6.9098,
              "z": 1.5084
            }
          },
          {
            "elSymbol": "H",
            "p3d": {
              "x": -0.0446,
              "y": 5.157,
              "z": 1.5955
            }
          },
          {
            "elSymbol": "C",
            "p3d": {
              "x": 1.7465,
              "y": 6.1786,
              "z": 2.1683
            }
          },
          {
            "elSymbol": "H",
            "p3d": {
              "x": 2.17,
              "y": 6.1296,
              "z": 1.1666
            }
          },
          {
            "elSymbol": "H",
            "p3d": {
              "x": 2.031,
              "y": 7.1422,
              "z": 2.6107
            }
          },
          {
            "elSymbol": "N",
            "p3d": {
              "x": 2.2792,
              "y": 5.0823,
              "z": 2.9873
            }
          },
          {
            "elSymbol": "O",
            "p3d": {
              "x": -0.34,
              "y": 6.1108,
              "z": 3.3895
            }
          }
        ],
        "bonds": [
          {
            "atomIds": [
              0,
              1
            ],
            "bo": "SINGLE"
          },
          {
            "atomIds": [
              2,
              0
            ],
            "bo": "SINGLE"
          },
          {
            "atomIds": [
              3,
              0
            ],
            "bo": "SINGLE"
          },
          {
            "atomIds": [
              4,
              3
            ],
            "bo": "SINGLE"
          },
          {
            "atomIds": [
              5,
              3
            ],
            "bo": "SINGLE"
          },
          {
            "atomIds": [
              6,
              7
            ],
            "bo": "SINGLE"
          },
          {
            "atomIds": [
              8,
              6
            ],
            "bo": "SINGLE"
          },
          {
            "atomIds": [
              9,
              6
            ],
            "bo": "SINGLE"
          },
          {
            "atomIds": [
              10,
              9
            ],
            "bo": "SINGLE"
          },
          {
            "atomIds": [
              11,
              9
            ],
            "bo": "SINGLE"
          },
          {
            "atomIds": [
              12,
              0
            ],
            "bo": "SINGLE"
          },
          {
            "atomIds": [
              13,
              3
            ],
            "bo": "SINGLE"
          },
          {
            "atomIds": [
              6,
              13
            ],
            "bo": "SINGLE"
          },
          {
            "atomIds": [
              9,
              12
            ],
            "bo": "SINGLE"
          }
        ]
      },
      "vertexId": 151935,
      "buildingBlockId": 8,
      "buildingBlockType": "FRAGMENT",
      "isRCV": false,
      "properties": {
        "ATTACHMENT_POINTS": "13#LAminoPhosphineCycloN:1:SINGLE:3.8318%4.4705%2.8673 "
      },
      "uniquefyingPropertyKeys": [],
      "allowedMutationTypes": [
        "DELETE",
        "EXTEND",
        "CHANGEBRANCH",
        "CHANGELINK",
        "ADDLINK",
        "DELETELINK",
        "DELETECHAIN"
      ],
      "vertexType": "MolecularFragment"
    },
    {
      "lstAPs": [
        {
          "id": 198725,
          "atomPositionNumber": 0,
          "atomPositionNumberInMol": 23,
          "apClass": {
            "rule": "SubRM",
            "subClass": 1,
            "bndTyp": "SINGLE"
          },
          "dirVec": {
            "x": 0.2917,
            "y": 0.3929,
            "z": -0.6365
          }
        }
      ],
      "lstSymAPs": [],
      "mol": {
        "atoms": [
          {
            "elSymbol": "C",
            "p3d": {
              "x": 1.7002,
              "y": 0.56,
              "z": -1.2045
            }
          },
          {
            "elSymbol": "C",
            "p3d": {
              "x": 3.564,
              "y": -0.7339,
              "z": -2.2652
            }
          },
          {
            "elSymbol": "C",
            "p3d": {
              "x": 2.9237,
              "y": 1.5034,
              "z": -3.1926
            }
          },
          {
            "elSymbol": "C",
            "p3d": {
              "x": 3.4145,
              "y": 0.0994,
              "z": -3.5498
            }
          },
          {
            "elSymbol": "C",
            "p3d": {
              "x": 1.5576,
              "y": 1.3879,
              "z": -2.5024
            }
          },
          {
            "elSymbol": "C",
            "p3d": {
              "x": 2.203,
              "y": -0.843,
              "z": -1.5702
            }
          },
          {
            "elSymbol": "H",
            "p3d": {
              "x": 4.3384,
              "y": -0.3241,
              "z": -1.6106
            }
          },
          {
            "elSymbol": "H",
            "p3d": {
              "x": 3.6361,
              "y": 2.0524,
              "z": -2.5991
            }
          },
          {
            "elSymbol": "H",
            "p3d": {
              "x": 2.7828,
              "y": -0.3911,
              "z": -4.2916
            }
          },
          {
            "elSymbol": "H",
            "p3d": {
              "x": 0.7737,
              "y": 0.9833,
              "z": -3.15
            }
          },
          {
            "elSymbol": "H",
            "p3d": {
              "x": 1.4815,
              "y": -1.3988,
              "z": -2.1783
            }
          },
          {
            "elSymbol": "H",
            "p3d": {
              "x": 2.3445,
              "y": 1.0609,
              "z": -0.4835
            }
          },
          {
            "elSymbol": "H",
            "p3d": {
              "x": 3.8429,
              "y": -1.7623,
              "z": -2.577
            }
          },
          {
            "elSymbol": "H",
            "p3d": {
              "x": 2.7428,
              "y": 2.0124,
              "z": -4.146
            }
          },
          {
            "elSymbol": "H",
            "p3d": {
              "x": 4.4291,
              "y": 0.2183,
              "z": -3.9628
            }
          },
          {
            "elSymbol": "H",
            "p3d": {
              "x": 1.2819,
              "y": 2.4034,
              "z": -2.1821
            }
          },
          {
            "elSymbol": "H",
            "p3d": {
              "x": 2.3734,
              "y": -1.3662,
              "z": -0.6149
            }
          }
        ],
        "bonds": [
          {
            "atomIds": [
              0,
              11
            ],
            "bo": "SINGLE"
          },
          {
            "atomIds": [
              0,
              4
            ],
            "bo": "SINGLE"
          },
          {
            "atomIds": [
              0,
              5
            ],
            "bo": "SINGLE"
          },
          {
            "atomIds": [
              1,
              6
            ],
            "bo": "SINGLE"
          },
          {
            "atomIds": [
              1,
              12
            ],
            "bo": "SINGLE"
          },
          {
            "atomIds": [
              1,
              3
            ],
            "bo": "SINGLE"
          },
          {
            "atomIds": [
              1,
              5
            ],
            "bo": "SINGLE"
          },
          {
            "atomIds": [
              2,
              7
            ],
            "bo": "SINGLE"
          },
          {
            "atomIds": [
              2,
              13
            ],
            "bo": "SINGLE"
          },
          {
            "atomIds": [
              2,
              4
            ],
            "bo": "SINGLE"
          },
          {
            "atomIds": [
              2,
              3
            ],
            "bo": "SINGLE"
          },
          {
            "atomIds": [
              3,
              8
            ],
            "bo": "SINGLE"
          },
          {
            "atomIds": [
              3,
              14
            ],
            "bo": "SINGLE"
          },
          {
            "atomIds": [
              4,
              9
            ],
            "bo": "SINGLE"
          },
          {
            "atomIds": [
              4,
              15
            ],
            "bo": "SINGLE"
          },
          {
            "atomIds": [
              5,
              10
            ],
            "bo": "SINGLE"
          },
          {
            "atomIds": [
              5,
              16
            ],
            "bo": "SINGLE"
          }
        ]
      },
      "vertexId": 151632,
      "buildingBlockId": 34,
      "buildingBlockType": "FRAGMENT",
      "isRCV": false,
      "properties": {
        "ATTACHMENT_POINTS": "1#SubRM:1:SINGLE:0.2917%0.3929%-0.6365 "
      },
      "uniquefyingPropertyKeys": [],
      "allowedMutationTypes": [
        "DELETE",
        "EXTEND",
        "CHANGEBRANCH",
        "CHANGELINK",
        "ADDLINK",
        "DELETELINK",
        "DELETECHAIN"
      ],
      "vertexType": "MolecularFragment"
    },
    {
      "lstAPs": [
        {
          "id": 198726,
          "atomPositionNumber": 12,
          "atomPositionNumberInMol": 52,
          "apClass": {
            "rule": "LAminoPhosphineCycloN",
            "subClass": 1,
            "bndTyp": "SINGLE"
          },
          "dirVec": {
            "x": 3.8318,
            "y": 4.4705,
            "z": 2.8673
          }
        }
      ],
      "lstSymAPs": [],
      "mol": {
        "atoms": [
          {
            "elSymbol": "C",
            "p3d": {
              "x": 1.6447,
              "y": 5.1042,
              "z": 4.3264
            }
          },
          {
            "elSymbol": "H",
            "p3d": {
              "x": 1.9147,
              "y": 6.0213,
              "z": 4.8479
            }
          },
          {
            "elSymbol": "H",
            "p3d": {
              "x": 1.9986,
              "y": 4.2552,
              "z": 4.9127
            }
          },
          {
            "elSymbol": "C",
            "p3d": {
              "x": 0.1515,
              "y": 5.0176,
              "z": 4.1739
            }
          },
          {
            "elSymbol": "H",
            "p3d": {
              "x": -0.1334,
              "y": 4.0848,
              "z": 3.6797
            }
          },
          {
            "elSymbol": "H",
            "p3d": {
              "x": -0.3255,
              "y": 5.0447,
              "z": 5.1478
            }
          },
          {
            "elSymbol": "C",
            "p3d": {
              "x": 0.2487,
              "y": 6.072,
              "z": 2.1008
            }
          },
          {
            "elSymbol": "H",
            "p3d": {
              "x": -0.1423,
              "y": 6.9098,
              "z": 1.5084
            }
          },
          {
            "elSymbol": "H",
            "p3d": {
              "x": -0.0446,
              "y": 5.157,
              "z": 1.5955
            }
          },
          {
            "elSymbol": "C",
            "p3d": {
              "x": 1.7465,
              "y": 6.1786,
              "z": 2.1683
            }
          },
          {
            "elSymbol": "H",
            "p3d": {
              "x": 2.17,
              "y": 6.1296,
              "z": 1.1666
            }
          },
          {
            "elSymbol": "H",
            "p3d": {
              "x": 2.031,
              "y": 7.1422,
              "z": 2.6107
            }
          },
          {
            "elSymbol": "N",
            "p3d": {
              "x": 2.2792,
              "y": 5.0823,
              "z": 2.9873
            }
          },
          {
            "elSymbol": "O",
            "p3d": {
              "x": -0.34,
              "y": 6.1108,
              "z": 3.3895
            }
          }
        ],
        "bonds": [
          {
            "atomIds": [
              0,
              1
            ],
            "bo": "SINGLE"
          },
          {
            "atomIds": [
              2,
              0
            ],
            "bo": "SINGLE"
          },
          {
            "atomIds": [
              3,
              0
            ],
            "bo": "SINGLE"
          },
          {
            "atomIds": [
              4,
              3
            ],
            "bo": "SINGLE"
          },
          {
            "atomIds": [
              5,
              3
            ],
            "bo": "SINGLE"
          },
          {
            "atomIds": [
              6,
              7
            ],
            "bo": "SINGLE"
          },
          {
            "atomIds": [
              8,
              6
            ],
            "bo": "SINGLE"
          },
          {
            "atomIds": [
              9,
              6
            ],
            "bo": "SINGLE"
          },
          {
            "atomIds": [
              10,
              9
            ],
            "bo": "SINGLE"
          },
          {
            "atomIds": [
              11,
              9
            ],
            "bo": "SINGLE"
          },
          {
            "atomIds": [
              12,
              0
            ],
            "bo": "SINGLE"
          },
          {
            "atomIds": [
              13,
              3
            ],
            "bo": "SINGLE"
          },
          {
            "atomIds": [
              6,
              13
            ],
            "bo": "SINGLE"
          },
          {
            "atomIds": [
              9,
              12
            ],
            "bo": "SINGLE"
          }
        ]
      },
      "vertexId": 151622,
      "buildingBlockId": 8,
      "buildingBlockType": "FRAGMENT",
      "isRCV": false,
      "properties": {
        "ATTACHMENT_POINTS": "13#LAminoPhosphineCycloN:1:SINGLE:3.8318%4.4705%2.8673 "
      },
      "uniquefyingPropertyKeys": [],
      "allowedMutationTypes": [
        "DELETE",
        "EXTEND",
        "CHANGEBRANCH",
        "CHANGELINK",
        "ADDLINK",
        "DELETELINK",
        "DELETECHAIN"
      ],
      "vertexType": "MolecularFragment"
    }
  ],
  "gEdges": [
    {
      "srcAPID": 198679,
      "trgAPID": 198682,
      "bondType": "SINGLE"
    },
    {
      "srcAPID": 198681,
      "trgAPID": 198686,
      "bondType": "SINGLE"
    },
    {
      "srcAPID": 198680,
      "trgAPID": 198687,
      "bondType": "SINGLE"
    },
    {
      "srcAPID": 198684,
      "trgAPID": 198724,
      "bondType": "SINGLE"
    },
    {
      "srcAPID": 198685,
      "trgAPID": 198725,
      "bondType": "SINGLE"
    },
    {
      "srcAPID": 198683,
      "trgAPID": 198726,
      "bondType": "SINGLE"
    }
  ],
  "gRings": [],
  "symVertices": [
    {
      "symIds": [
        151935,
        151622
      ]
    }
  ]
}

> <SMILES>
[Pt](C#O)(C#N)([P](N1C([H])([H])C([H])([H])OC([H])([H])C1([H])[H])(C2([H])C(C([H])([H])C(C([H])([H])C2([H])[H])([H])[H])([H])[H])N3C([H])([H])C([H])([H])OC([H])([H])C3([H])[H])SC([H])([H])[H]

$$$$
