M00004960
  CDK     04222210283D

 61 66  0  0  0  0  0  0  0  0999 V2000
    3.2454   -0.1235    1.2559 Pt  0  0  0  0  0  0  0  0  0  0  0  0
    5.1685   -0.2594    1.3469 C   0  0  0  0  0  0  0  0  0  0  0  0
    6.3116   -0.2986    1.3938 O   0  0  0  0  0  0  0  0  0  0  0  0
    2.9767   -2.1522    1.2811 O   0  0  0  0  0  0  0  0  0  0  0  0
    2.9644   -2.6048    2.6151 C   0  0  0  0  0  0  0  0  0  0  0  0
    2.7326   -3.6782    2.5623 H   0  0  0  0  0  0  0  0  0  0  0  0
    2.1925   -2.0730    3.1875 H   0  0  0  0  0  0  0  0  0  0  0  0
    3.9530   -2.4572    3.0696 H   0  0  0  0  0  0  0  0  0  0  0  0
    0.4185   -0.1379    0.1995 N   0  0  0  0  0  0  0  0  0  0  0  0
    0.5222    0.6753    2.3302 C   0  0  0  0  0  0  0  0  0  0  0  0
    0.9850    1.1403    3.5532 C   0  0  0  0  0  0  0  0  0  0  0  0
    2.0563    1.1435    3.7757 H   0  0  0  0  0  0  0  0  0  0  0  0
    0.0351    1.6206    4.4730 C   0  0  0  0  0  0  0  0  0  0  0  0
    0.3708    1.9928    5.4414 H   0  0  0  0  0  0  0  0  0  0  0  0
   -1.3248    1.6302    4.1584 C   0  0  0  0  0  0  0  0  0  0  0  0
   -2.0450    2.0018    4.8891 H   0  0  0  0  0  0  0  0  0  0  0  0
   -1.7933    1.1730    2.9101 C   0  0  0  0  0  0  0  0  0  0  0  0
   -2.8563    1.1873    2.6766 H   0  0  0  0  0  0  0  0  0  0  0  0
   -0.8616    0.7091    2.0003 C   0  0  0  0  0  0  0  0  0  0  0  0
   -1.0548    0.1454    0.5859 C   0  0  0  0  0  0  0  0  0  0  0  0
    1.2746    0.1303    1.1933 C   0  0  1  0  0  0  0  0  0  0  0  0
   -1.6020    1.1371   -0.4246 C   0  0  0  0  0  0  0  0  0  0  0  0
   -1.9820    0.6867   -1.7007 C   0  0  0  0  0  0  0  0  0  0  0  0
   -1.8887   -0.3706   -1.9572 H   0  0  0  0  0  0  0  0  0  0  0  0
   -2.4678    1.5884   -2.6489 C   0  0  0  0  0  0  0  0  0  0  0  0
   -2.7570    1.2325   -3.6371 H   0  0  0  0  0  0  0  0  0  0  0  0
   -2.5737    2.9479   -2.3356 C   0  0  0  0  0  0  0  0  0  0  0  0
   -2.9516    3.6509   -3.0769 H   0  0  0  0  0  0  0  0  0  0  0  0
   -2.1841    3.4015   -1.0730 C   0  0  0  0  0  0  0  0  0  0  0  0
   -2.2537    4.4610   -0.8283 H   0  0  0  0  0  0  0  0  0  0  0  0
   -1.6938    2.5020   -0.1209 C   0  0  0  0  0  0  0  0  0  0  0  0
   -1.3767    2.8794    0.8528 H   0  0  0  0  0  0  0  0  0  0  0  0
    0.3279   -2.6836   -0.6631 H   0  0  0  0  0  0  0  0  0  0  0  0
    0.6473   -1.9605   -1.4162 C   0  0  0  0  0  0  0  0  0  0  0  0
    0.7880   -0.6224   -1.1205 C   0  0  0  0  0  0  0  0  0  0  0  0
    1.3660   -1.5545   -3.6981 C   0  0  0  0  0  0  0  0  0  0  0  0
    1.2739    0.3217   -2.0962 C   0  0  0  0  0  0  0  0  0  0  0  0
    0.9444   -2.4267   -2.7276 C   0  0  0  0  0  0  0  0  0  0  0  0
    1.5427   -0.1645   -3.4041 C   0  0  0  0  0  0  0  0  0  0  0  0
    1.5069    1.7036   -1.8095 C   0  0  0  0  0  0  0  0  0  0  0  0
    0.8324   -3.4906   -2.9366 H   0  0  0  0  0  0  0  0  0  0  0  0
    2.1960    0.3635   -5.4093 H   0  0  0  0  0  0  0  0  0  0  0  0
    1.5861   -1.9057   -4.7065 H   0  0  0  0  0  0  0  0  0  0  0  0
    1.9548    2.5523   -2.7912 C   0  0  0  0  0  0  0  0  0  0  0  0
    1.3479    2.0767   -0.7942 H   0  0  0  0  0  0  0  0  0  0  0  0
    2.1431    3.6034   -2.5710 H   0  0  0  0  0  0  0  0  0  0  0  0
    2.1972    2.0708   -4.1099 C   0  0  0  0  0  0  0  0  0  0  0  0
    2.5490    2.7700   -4.8676 H   0  0  0  0  0  0  0  0  0  0  0  0
    2.0007    0.7461   -4.4087 C   0  0  0  0  0  0  0  0  0  0  0  0
   -1.8594   -1.1418    0.7213 C   0  0  0  0  0  0  0  0  0  0  0  0
   -3.2274   -1.1492    0.4120 C   0  0  0  0  0  0  0  0  0  0  0  0
   -3.7165   -0.2492    0.0358 H   0  0  0  0  0  0  0  0  0  0  0  0
   -3.9823   -2.3123    0.5888 C   0  0  0  0  0  0  0  0  0  0  0  0
   -5.0427   -2.3110    0.3388 H   0  0  0  0  0  0  0  0  0  0  0  0
   -3.3827   -3.4723    1.0866 C   0  0  0  0  0  0  0  0  0  0  0  0
   -3.9713   -4.3789    1.2202 H   0  0  0  0  0  0  0  0  0  0  0  0
   -2.0247   -3.4617    1.4196 C   0  0  0  0  0  0  0  0  0  0  0  0
   -1.5538   -4.3594    1.8199 H   0  0  0  0  0  0  0  0  0  0  0  0
   -1.2672   -2.3007    1.2475 C   0  0  0  0  0  0  0  0  0  0  0  0
   -0.2114   -2.3059    1.5321 H   0  0  0  0  0  0  0  0  0  0  0  0
    3.4946    2.1611    1.1595 Cl  0  0  0  0  0  0  0  0  0  0  0  0
  2  3  3  0  0  0  0
  1  2  1  0  0  0  0
  5  6  1  0  0  0  0
  5  7  1  0  0  0  0
  5  8  1  0  0  0  0
  4  5  1  0  0  0  0
  1  4  1  0  0  0  0
  9 20  1  0  0  0  0
 10 11  1  0  0  0  0
 11 12  1  0  0  0  0
 13 11  2  0  0  0  0
 14 13  1  0  0  0  0
 15 13  1  0  0  0  0
 16 15  1  0  0  0  0
 17 15  2  0  0  0  0
 18 17  1  0  0  0  0
 19 10  2  0  0  0  0
 20 19  1  0  0  0  0
  9 21  1  0  0  0  0
 10 21  1  0  0  0  0
 17 19  1  0  0  0  0
  1 21  1  0  0  0  0
 23 22  1  0  0  0  0
 24 23  1  0  0  0  0
 25 23  2  0  0  0  0
 26 25  1  0  0  0  0
 27 25  1  0  0  0  0
 28 27  1  0  0  0  0
 29 27  2  0  0  0  0
 30 29  1  0  0  0  0
 31 22  2  0  0  0  0
 32 31  1  0  0  0  0
 29 31  1  0  0  0  0
 20 22  1  0  0  0  0
 33 34  1  0  0  0  0
 34 35  1  0  0  0  0
 34 38  2  0  0  0  0
 35 37  2  0  0  0  0
 37 39  1  0  0  0  0
 36 38  1  0  0  0  0
 36 39  2  0  0  0  0
 40 37  1  0  0  0  0
 39 49  1  0  0  0  0
 40 44  2  0  0  0  0
 44 47  1  0  0  0  0
 47 49  2  0  0  0  0
 36 43  1  0  0  0  0
 38 41  1  0  0  0  0
 40 45  1  0  0  0  0
 42 49  1  0  0  0  0
 47 48  1  0  0  0  0
 44 46  1  0  0  0  0
  9 35  1  0  0  0  0
 51 50  1  0  0  0  0
 52 51  1  0  0  0  0
 53 51  2  0  0  0  0
 54 53  1  0  0  0  0
 55 53  1  0  0  0  0
 56 55  1  0  0  0  0
 57 55  2  0  0  0  0
 58 57  1  0  0  0  0
 59 50  2  0  0  0  0
 60 59  1  0  0  0  0
 57 59  1  0  0  0  0
 20 50  1  0  0  0  0
  1 61  1  0  0  0  0
M  END
> <PM6_ENERGY>
371.057

> <UID>
XWHGTWUBIQQPMH-YGTZHFNINA-M

> <FITNESS>
1.14473

> <GCODE>
5739

> <GraphENC>
5739 72_1_0,80_65_1,93_15_1,88_67_1,113892_30_1,113489_39_1,113495_30_1, 72_0_80_0_SINGLE_Xlig:0_Xlig:1,72_2_93_3_SINGLE_scaff:0_MIsoindolylidene:1,72_1_88_0_SINGLE_Xlig:0_Xlig:1,93_2_113892_0_SINGLE_LIsoindolylideneSubCS:0_LIsoindolylideneSubCS:1,93_0_113489_0_SINGLE_LIsoindolylideneSubNL:0_SubArM:1,93_1_113495_0_SINGLE_LIsoindolylideneSubCS:0_LIsoindolylideneSubCS:1, SymmetricSet [symIds=[113892, 113495]] 

> <GraphJson>
{
  "graphId": 5739,
  "gVertices": [
    {
      "lstAPs": [
        {
          "id": 149648,
          "atomPositionNumber": 0,
          "atomPositionNumberInMol": 0,
          "apClass": {
            "rule": "Xlig",
            "subClass": 0,
            "bndTyp": "SINGLE"
          },
          "dirVec": {
            "x": -2.3339,
            "y": -0.0087,
            "z": 0.8172
          }
        },
        {
          "id": 149649,
          "atomPositionNumber": 0,
          "atomPositionNumberInMol": 0,
          "apClass": {
            "rule": "Xlig",
            "subClass": 0,
            "bndTyp": "SINGLE"
          },
          "dirVec": {
            "x": 2.336,
            "y": -5.0E-4,
            "z": 0.829
          }
        },
        {
          "id": 149650,
          "atomPositionNumber": 0,
          "atomPositionNumberInMol": 0,
          "apClass": {
            "rule": "scaff",
            "subClass": 0,
            "bndTyp": "SINGLE"
          },
          "dirVec": {
            "x": -0.0095,
            "y": 0.0046,
            "z": -1.7113
          }
        }
      ],
      "lstSymAPs": [
        {
          "symIds": [
            0,
            1
          ]
        }
      ],
      "mol": {
        "atoms": [
          {
            "elSymbol": "Pt",
            "p3d": {
              "x": -0.0098,
              "y": 0.0049,
              "z": 0.6289
            }
          },
          {
            "elSymbol": "C",
            "p3d": {
              "x": -6.0E-4,
              "y": 0.0016,
              "z": 2.5609
            }
          },
          {
            "elSymbol": "O",
            "p3d": {
              "x": 0.0025,
              "y": -0.0041,
              "z": 3.6974
            }
          },
          {
            "elSymbol": "Du",
            "p3d": {
              "x": -0.007,
              "y": 1.0013,
              "z": 0.6372
            }
          },
          {
            "elSymbol": "Du",
            "p3d": {
              "x": -0.0014,
              "y": 0.9902,
              "z": 2.5698
            }
          }
        ],
        "bonds": [
          {
            "atomIds": [
              1,
              2
            ],
            "bo": "TRIPLE"
          },
          {
            "atomIds": [
              0,
              1
            ],
            "bo": "SINGLE"
          },
          {
            "atomIds": [
              3,
              0
            ],
            "bo": "SINGLE"
          },
          {
            "atomIds": [
              4,
              1
            ],
            "bo": "SINGLE"
          }
        ]
      },
      "vertexId": 72,
      "buildingBlockId": 0,
      "buildingBlockType": "SCAFFOLD",
      "isRCV": false,
      "properties": {
        "ATTACHMENT_POINTS": "1#Xlig:0:SINGLE:-2.3339%-0.0087%0.8172,Xlig:0:SINGLE:2.3360%-0.0005%0.8290,scaff:0:SINGLE:-0.0095%0.0046%-1.7113 "
      },
      "uniquefyingPropertyKeys": [],
      "allowedMutationTypes": [
        "DELETE",
        "EXTEND",
        "CHANGEBRANCH",
        "CHANGELINK",
        "ADDLINK",
        "DELETELINK",
        "DELETECHAIN"
      ],
      "vertexType": "MolecularFragment"
    },
    {
      "lstAPs": [
        {
          "id": 149651,
          "atomPositionNumber": 0,
          "atomPositionNumberInMol": 5,
          "apClass": {
            "rule": "Xlig",
            "subClass": 1,
            "bndTyp": "SINGLE"
          },
          "dirVec": {
            "x": -0.1753,
            "y": 0.0948,
            "z": -0.4464
          }
        }
      ],
      "lstSymAPs": [],
      "mol": {
        "atoms": [
          {
            "elSymbol": "O",
            "p3d": {
              "x": -0.3534,
              "y": 2.1044,
              "z": -0.7339
            }
          },
          {
            "elSymbol": "C",
            "p3d": {
              "x": -0.5345,
              "y": 2.7646,
              "z": 0.4801
            }
          },
          {
            "elSymbol": "H",
            "p3d": {
              "x": -0.3728,
              "y": 3.8337,
              "z": 0.2724
            }
          },
          {
            "elSymbol": "H",
            "p3d": {
              "x": 0.1816,
              "y": 2.4161,
              "z": 1.2384
            }
          },
          {
            "elSymbol": "H",
            "p3d": {
              "x": -1.553,
              "y": 2.6149,
              "z": 0.8489
            }
          }
        ],
        "bonds": [
          {
            "atomIds": [
              1,
              2
            ],
            "bo": "SINGLE"
          },
          {
            "atomIds": [
              1,
              3
            ],
            "bo": "SINGLE"
          },
          {
            "atomIds": [
              1,
              4
            ],
            "bo": "SINGLE"
          },
          {
            "atomIds": [
              0,
              1
            ],
            "bo": "SINGLE"
          }
        ]
      },
      "vertexId": 80,
      "buildingBlockId": 64,
      "buildingBlockType": "FRAGMENT",
      "isRCV": false,
      "properties": {
        "ATTACHMENT_POINTS": "1#Xlig:1:SINGLE:-0.1753%0.0948%-0.4464 "
      },
      "uniquefyingPropertyKeys": [],
      "allowedMutationTypes": [
        "DELETE",
        "EXTEND",
        "CHANGEBRANCH",
        "CHANGELINK",
        "ADDLINK",
        "DELETELINK",
        "DELETECHAIN"
      ],
      "vertexType": "MolecularFragment"
    },
    {
      "lstAPs": [
        {
          "id": 149652,
          "atomPositionNumber": 0,
          "atomPositionNumberInMol": 10,
          "apClass": {
            "rule": "LIsoindolylideneSubNL",
            "subClass": 0,
            "bndTyp": "SINGLE"
          },
          "dirVec": {
            "x": 8.2611,
            "y": 13.2699,
            "z": 19.2517
          }
        },
        {
          "id": 149653,
          "atomPositionNumber": 11,
          "atomPositionNumberInMol": 21,
          "apClass": {
            "rule": "LIsoindolylideneSubCS",
            "subClass": 0,
            "bndTyp": "SINGLE"
          },
          "dirVec": {
            "x": 8.8004,
            "y": 11.8294,
            "z": 16.2112
          }
        },
        {
          "id": 149654,
          "atomPositionNumber": 11,
          "atomPositionNumberInMol": 21,
          "apClass": {
            "rule": "LIsoindolylideneSubCS",
            "subClass": 0,
            "bndTyp": "SINGLE"
          },
          "dirVec": {
            "x": 9.9911,
            "y": 10.7246,
            "z": 18.2628
          }
        },
        {
          "id": 149655,
          "atomPositionNumber": 12,
          "atomPositionNumberInMol": 22,
          "apClass": {
            "rule": "MIsoindolylidene",
            "subClass": 1,
            "bndTyp": "SINGLE"
          },
          "dirVec": {
            "x": 10.5893,
            "y": 15.7982,
            "z": 19.2952
          }
        }
      ],
      "lstSymAPs": [
        {
          "symIds": [
            1,
            2
          ]
        }
      ],
      "mol": {
        "atoms": [
          {
            "elSymbol": "N",
            "p3d": {
              "x": 9.4489,
              "y": 13.1799,
              "z": 18.2942
            }
          },
          {
            "elSymbol": "C",
            "p3d": {
              "x": 11.4201,
              "y": 13.7017,
              "z": 17.3025
            }
          },
          {
            "elSymbol": "C",
            "p3d": {
              "x": 12.5951,
              "y": 14.339,
              "z": 16.9164
            }
          },
          {
            "elSymbol": "H",
            "p3d": {
              "x": 12.8733,
              "y": 15.3,
              "z": 17.3622
            }
          },
          {
            "elSymbol": "C",
            "p3d": {
              "x": 13.4411,
              "y": 13.7204,
              "z": 15.9914
            }
          },
          {
            "elSymbol": "H",
            "p3d": {
              "x": 14.3384,
              "y": 14.2201,
              "z": 15.6587
            }
          },
          {
            "elSymbol": "C",
            "p3d": {
              "x": 13.0993,
              "y": 12.4808,
              "z": 15.4917
            }
          },
          {
            "elSymbol": "H",
            "p3d": {
              "x": 13.7585,
              "y": 11.989,
              "z": 14.7813
            }
          },
          {
            "elSymbol": "C",
            "p3d": {
              "x": 11.9512,
              "y": 11.8214,
              "z": 15.8884
            }
          },
          {
            "elSymbol": "H",
            "p3d": {
              "x": 11.7213,
              "y": 10.8277,
              "z": 15.5012
            }
          },
          {
            "elSymbol": "C",
            "p3d": {
              "x": 11.1202,
              "y": 12.434,
              "z": 16.8015
            }
          },
          {
            "elSymbol": "C",
            "p3d": {
              "x": 9.7825,
              "y": 11.9664,
              "z": 17.3844
            }
          },
          {
            "elSymbol": "C",
            "p3d": {
              "x": 10.4002,
              "y": 14.1128,
              "z": 18.2438
            }
          }
        ],
        "bonds": [
          {
            "atomIds": [
              0,
              11
            ],
            "bo": "SINGLE"
          },
          {
            "atomIds": [
              1,
              2
            ],
            "bo": "SINGLE"
          },
          {
            "atomIds": [
              2,
              3
            ],
            "bo": "SINGLE"
          },
          {
            "atomIds": [
              4,
              2
            ],
            "bo": "DOUBLE"
          },
          {
            "atomIds": [
              5,
              4
            ],
            "bo": "SINGLE"
          },
          {
            "atomIds": [
              6,
              4
            ],
            "bo": "SINGLE"
          },
          {
            "atomIds": [
              7,
              6
            ],
            "bo": "SINGLE"
          },
          {
            "atomIds": [
              8,
              6
            ],
            "bo": "DOUBLE"
          },
          {
            "atomIds": [
              9,
              8
            ],
            "bo": "SINGLE"
          },
          {
            "atomIds": [
              10,
              1
            ],
            "bo": "DOUBLE"
          },
          {
            "atomIds": [
              11,
              10
            ],
            "bo": "SINGLE"
          },
          {
            "atomIds": [
              0,
              12
            ],
            "bo": "SINGLE"
          },
          {
            "atomIds": [
              1,
              12
            ],
            "bo": "SINGLE"
          },
          {
            "atomIds": [
              8,
              10
            ],
            "bo": "SINGLE"
          }
        ]
      },
      "vertexId": 93,
      "buildingBlockId": 14,
      "buildingBlockType": "FRAGMENT",
      "isRCV": false,
      "properties": {
        "ATTACHMENT_POINTS": "1#LIsoindolylideneSubNL:0:SINGLE:8.2611%13.2699%19.2517 12#LIsoindolylideneSubCS:0:SINGLE:8.8004%11.8294%16.2112,LIsoindolylideneSubCS:0:SINGLE:9.9911%10.7246%18.2628 13#MIsoindolylidene:1:SINGLE:10.5893%15.7982%19.2952 "
      },
      "uniquefyingPropertyKeys": [],
      "allowedMutationTypes": [
        "DELETE",
        "EXTEND",
        "CHANGEBRANCH",
        "CHANGELINK",
        "ADDLINK",
        "DELETELINK",
        "DELETECHAIN"
      ],
      "vertexType": "MolecularFragment"
    },
    {
      "lstAPs": [
        {
          "id": 149656,
          "atomPositionNumber": 0,
          "atomPositionNumberInMol": 62,
          "apClass": {
            "rule": "Xlig",
            "subClass": 1,
            "bndTyp": "SINGLE"
          },
          "dirVec": {
            "x": -0.0053,
            "y": -0.0027,
            "z": 0.63
          }
        }
      ],
      "lstSymAPs": [],
      "mol": {
        "atoms": [
          {
            "elSymbol": "Cl",
            "p3d": {
              "x": 2.3243,
              "y": -0.0063,
              "z": 0.8189
            }
          }
        ],
        "bonds": []
      },
      "vertexId": 88,
      "buildingBlockId": 66,
      "buildingBlockType": "FRAGMENT",
      "isRCV": false,
      "properties": {
        "ATTACHMENT_POINTS": "1#Xlig:1:SINGLE:-0.0053%-0.0027%0.6300 "
      },
      "uniquefyingPropertyKeys": [],
      "allowedMutationTypes": [
        "DELETE",
        "EXTEND",
        "CHANGEBRANCH",
        "CHANGELINK",
        "ADDLINK",
        "DELETELINK",
        "DELETECHAIN"
      ],
      "vertexType": "MolecularFragment"
    },
    {
      "lstAPs": [
        {
          "id": 149693,
          "atomPositionNumber": 0,
          "atomPositionNumberInMol": 23,
          "apClass": {
            "rule": "LIsoindolylideneSubCS",
            "subClass": 1,
            "bndTyp": "SINGLE"
          },
          "dirVec": {
            "x": 5.5795,
            "y": 5.9633,
            "z": -0.239
          }
        }
      ],
      "lstSymAPs": [],
      "mol": {
        "atoms": [
          {
            "elSymbol": "C",
            "p3d": {
              "x": 6.4615,
              "y": 7.1721,
              "z": 0.1839
            }
          },
          {
            "elSymbol": "C",
            "p3d": {
              "x": 7.081,
              "y": 7.1629,
              "z": 1.4436
            }
          },
          {
            "elSymbol": "H",
            "p3d": {
              "x": 7.0505,
              "y": 6.276,
              "z": 2.048
            }
          },
          {
            "elSymbol": "C",
            "p3d": {
              "x": 7.7838,
              "y": 8.284,
              "z": 1.8843
            }
          },
          {
            "elSymbol": "H",
            "p3d": {
              "x": 8.252,
              "y": 8.2646,
              "z": 2.8494
            }
          },
          {
            "elSymbol": "C",
            "p3d": {
              "x": 7.8546,
              "y": 9.4183,
              "z": 1.0991
            }
          },
          {
            "elSymbol": "H",
            "p3d": {
              "x": 8.4264,
              "y": 10.2812,
              "z": 1.4367
            }
          },
          {
            "elSymbol": "C",
            "p3d": {
              "x": 7.1986,
              "y": 9.4546,
              "z": -0.132
            }
          },
          {
            "elSymbol": "H",
            "p3d": {
              "x": 7.2285,
              "y": 10.3561,
              "z": -0.7414
            }
          },
          {
            "elSymbol": "C",
            "p3d": {
              "x": 6.4815,
              "y": 8.3462,
              "z": -0.5635
            }
          },
          {
            "elSymbol": "H",
            "p3d": {
              "x": 5.9344,
              "y": 8.3796,
              "z": -1.5229
            }
          }
        ],
        "bonds": [
          {
            "atomIds": [
              1,
              0
            ],
            "bo": "SINGLE"
          },
          {
            "atomIds": [
              2,
              1
            ],
            "bo": "SINGLE"
          },
          {
            "atomIds": [
              3,
              1
            ],
            "bo": "DOUBLE"
          },
          {
            "atomIds": [
              4,
              3
            ],
            "bo": "SINGLE"
          },
          {
            "atomIds": [
              5,
              3
            ],
            "bo": "SINGLE"
          },
          {
            "atomIds": [
              6,
              5
            ],
            "bo": "SINGLE"
          },
          {
            "atomIds": [
              7,
              5
            ],
            "bo": "DOUBLE"
          },
          {
            "atomIds": [
              8,
              7
            ],
            "bo": "SINGLE"
          },
          {
            "atomIds": [
              9,
              0
            ],
            "bo": "DOUBLE"
          },
          {
            "atomIds": [
              10,
              9
            ],
            "bo": "SINGLE"
          },
          {
            "atomIds": [
              7,
              9
            ],
            "bo": "SINGLE"
          }
        ]
      },
      "vertexId": 113892,
      "buildingBlockId": 29,
      "buildingBlockType": "FRAGMENT",
      "isRCV": false,
      "properties": {
        "ATTACHMENT_POINTS": "1#LIsoindolylideneSubCS:1:SINGLE:5.5795%5.9633%-0.2390 "
      },
      "uniquefyingPropertyKeys": [],
      "allowedMutationTypes": [
        "DELETE",
        "EXTEND",
        "CHANGEBRANCH",
        "CHANGELINK",
        "ADDLINK",
        "DELETELINK",
        "DELETECHAIN"
      ],
      "vertexType": "MolecularFragment"
    },
    {
      "lstAPs": [
        {
          "id": 149694,
          "atomPositionNumber": 2,
          "atomPositionNumberInMol": 36,
          "apClass": {
            "rule": "SubArM",
            "subClass": 1,
            "bndTyp": "SINGLE"
          },
          "dirVec": {
            "x": 0.2839,
            "y": 0.3907,
            "z": -0.6271
          }
        }
      ],
      "lstSymAPs": [],
      "mol": {
        "atoms": [
          {
            "elSymbol": "H",
            "p3d": {
              "x": 1.8079,
              "y": 2.6521,
              "z": -0.6457
            }
          },
          {
            "elSymbol": "C",
            "p3d": {
              "x": 2.3292,
              "y": 1.8028,
              "z": -1.1346
            }
          },
          {
            "elSymbol": "C",
            "p3d": {
              "x": 1.6928,
              "y": 0.5701,
              "z": -1.2214
            }
          },
          {
            "elSymbol": "C",
            "p3d": {
              "x": 4.26,
              "y": 0.9161,
              "z": -2.2564
            }
          },
          {
            "elSymbol": "C",
            "p3d": {
              "x": 2.3547,
              "y": -0.5116,
              "z": -1.8205
            }
          },
          {
            "elSymbol": "C",
            "p3d": {
              "x": 3.6118,
              "y": 1.9867,
              "z": -1.654
            }
          },
          {
            "elSymbol": "C",
            "p3d": {
              "x": 3.6519,
              "y": -0.333,
              "z": -2.339
            }
          },
          {
            "elSymbol": "C",
            "p3d": {
              "x": 1.7318,
              "y": -1.7781,
              "z": -1.8989
            }
          },
          {
            "elSymbol": "H",
            "p3d": {
              "x": 4.0936,
              "y": 2.9609,
              "z": -1.5808
            }
          },
          {
            "elSymbol": "H",
            "p3d": {
              "x": 5.3077,
              "y": -1.3005,
              "z": -3.3639
            }
          },
          {
            "elSymbol": "H",
            "p3d": {
              "x": 5.2705,
              "y": 1.0583,
              "z": -2.6578
            }
          },
          {
            "elSymbol": "C",
            "p3d": {
              "x": 2.3998,
              "y": -2.8526,
              "z": -2.5007
            }
          },
          {
            "elSymbol": "H",
            "p3d": {
              "x": 0.724,
              "y": -1.9306,
              "z": -1.4908
            }
          },
          {
            "elSymbol": "H",
            "p3d": {
              "x": 1.9155,
              "y": -3.8304,
              "z": -2.576
            }
          },
          {
            "elSymbol": "C",
            "p3d": {
              "x": 3.684,
              "y": -2.6697,
              "z": -3.0355
            }
          },
          {
            "elSymbol": "H",
            "p3d": {
              "x": 4.2028,
              "y": -3.5195,
              "z": -3.4955
            }
          },
          {
            "elSymbol": "C",
            "p3d": {
              "x": 4.3092,
              "y": -1.4197,
              "z": -2.9387
            }
          }
        ],
        "bonds": [
          {
            "atomIds": [
              0,
              1
            ],
            "bo": "SINGLE"
          },
          {
            "atomIds": [
              1,
              2
            ],
            "bo": "SINGLE"
          },
          {
            "atomIds": [
              1,
              5
            ],
            "bo": "DOUBLE"
          },
          {
            "atomIds": [
              2,
              4
            ],
            "bo": "DOUBLE"
          },
          {
            "atomIds": [
              4,
              6
            ],
            "bo": "SINGLE"
          },
          {
            "atomIds": [
              3,
              5
            ],
            "bo": "SINGLE"
          },
          {
            "atomIds": [
              3,
              6
            ],
            "bo": "DOUBLE"
          },
          {
            "atomIds": [
              7,
              4
            ],
            "bo": "SINGLE"
          },
          {
            "atomIds": [
              6,
              16
            ],
            "bo": "SINGLE"
          },
          {
            "atomIds": [
              7,
              11
            ],
            "bo": "DOUBLE"
          },
          {
            "atomIds": [
              11,
              14
            ],
            "bo": "SINGLE"
          },
          {
            "atomIds": [
              14,
              16
            ],
            "bo": "DOUBLE"
          },
          {
            "atomIds": [
              3,
              10
            ],
            "bo": "SINGLE"
          },
          {
            "atomIds": [
              5,
              8
            ],
            "bo": "SINGLE"
          },
          {
            "atomIds": [
              7,
              12
            ],
            "bo": "SINGLE"
          },
          {
            "atomIds": [
              9,
              16
            ],
            "bo": "SINGLE"
          },
          {
            "atomIds": [
              14,
              15
            ],
            "bo": "SINGLE"
          },
          {
            "atomIds": [
              11,
              13
            ],
            "bo": "SINGLE"
          }
        ]
      },
      "vertexId": 113489,
      "buildingBlockId": 38,
      "buildingBlockType": "FRAGMENT",
      "isRCV": false,
      "properties": {
        "ATTACHMENT_POINTS": "3#SubArM:1:SINGLE:0.2839%0.3907%-0.6271 "
      },
      "uniquefyingPropertyKeys": [],
      "allowedMutationTypes": [
        "DELETE",
        "EXTEND",
        "CHANGEBRANCH",
        "CHANGELINK",
        "ADDLINK",
        "DELETELINK",
        "DELETECHAIN"
      ],
      "vertexType": "MolecularFragment"
    },
    {
      "lstAPs": [
        {
          "id": 149695,
          "atomPositionNumber": 0,
          "atomPositionNumberInMol": 51,
          "apClass": {
            "rule": "LIsoindolylideneSubCS",
            "subClass": 1,
            "bndTyp": "SINGLE"
          },
          "dirVec": {
            "x": 5.5795,
            "y": 5.9633,
            "z": -0.239
          }
        }
      ],
      "lstSymAPs": [],
      "mol": {
        "atoms": [
          {
            "elSymbol": "C",
            "p3d": {
              "x": 6.4615,
              "y": 7.1721,
              "z": 0.1839
            }
          },
          {
            "elSymbol": "C",
            "p3d": {
              "x": 7.081,
              "y": 7.1629,
              "z": 1.4436
            }
          },
          {
            "elSymbol": "H",
            "p3d": {
              "x": 7.0505,
              "y": 6.276,
              "z": 2.048
            }
          },
          {
            "elSymbol": "C",
            "p3d": {
              "x": 7.7838,
              "y": 8.284,
              "z": 1.8843
            }
          },
          {
            "elSymbol": "H",
            "p3d": {
              "x": 8.252,
              "y": 8.2646,
              "z": 2.8494
            }
          },
          {
            "elSymbol": "C",
            "p3d": {
              "x": 7.8546,
              "y": 9.4183,
              "z": 1.0991
            }
          },
          {
            "elSymbol": "H",
            "p3d": {
              "x": 8.4264,
              "y": 10.2812,
              "z": 1.4367
            }
          },
          {
            "elSymbol": "C",
            "p3d": {
              "x": 7.1986,
              "y": 9.4546,
              "z": -0.132
            }
          },
          {
            "elSymbol": "H",
            "p3d": {
              "x": 7.2285,
              "y": 10.3561,
              "z": -0.7414
            }
          },
          {
            "elSymbol": "C",
            "p3d": {
              "x": 6.4815,
              "y": 8.3462,
              "z": -0.5635
            }
          },
          {
            "elSymbol": "H",
            "p3d": {
              "x": 5.9344,
              "y": 8.3796,
              "z": -1.5229
            }
          }
        ],
        "bonds": [
          {
            "atomIds": [
              1,
              0
            ],
            "bo": "SINGLE"
          },
          {
            "atomIds": [
              2,
              1
            ],
            "bo": "SINGLE"
          },
          {
            "atomIds": [
              3,
              1
            ],
            "bo": "DOUBLE"
          },
          {
            "atomIds": [
              4,
              3
            ],
            "bo": "SINGLE"
          },
          {
            "atomIds": [
              5,
              3
            ],
            "bo": "SINGLE"
          },
          {
            "atomIds": [
              6,
              5
            ],
            "bo": "SINGLE"
          },
          {
            "atomIds": [
              7,
              5
            ],
            "bo": "DOUBLE"
          },
          {
            "atomIds": [
              8,
              7
            ],
            "bo": "SINGLE"
          },
          {
            "atomIds": [
              9,
              0
            ],
            "bo": "DOUBLE"
          },
          {
            "atomIds": [
              10,
              9
            ],
            "bo": "SINGLE"
          },
          {
            "atomIds": [
              7,
              9
            ],
            "bo": "SINGLE"
          }
        ]
      },
      "vertexId": 113495,
      "buildingBlockId": 29,
      "buildingBlockType": "FRAGMENT",
      "isRCV": false,
      "properties": {
        "ATTACHMENT_POINTS": "1#LIsoindolylideneSubCS:1:SINGLE:5.5795%5.9633%-0.2390 "
      },
      "uniquefyingPropertyKeys": [],
      "allowedMutationTypes": [
        "DELETE",
        "EXTEND",
        "CHANGEBRANCH",
        "CHANGELINK",
        "ADDLINK",
        "DELETELINK",
        "DELETECHAIN"
      ],
      "vertexType": "MolecularFragment"
    }
  ],
  "gEdges": [
    {
      "srcAPID": 149648,
      "trgAPID": 149651,
      "bondType": "SINGLE"
    },
    {
      "srcAPID": 149650,
      "trgAPID": 149655,
      "bondType": "SINGLE"
    },
    {
      "srcAPID": 149649,
      "trgAPID": 149656,
      "bondType": "SINGLE"
    },
    {
      "srcAPID": 149654,
      "trgAPID": 149693,
      "bondType": "SINGLE"
    },
    {
      "srcAPID": 149652,
      "trgAPID": 149694,
      "bondType": "SINGLE"
    },
    {
      "srcAPID": 149653,
      "trgAPID": 149695,
      "bondType": "SINGLE"
    }
  ],
  "gRings": [],
  "symVertices": [
    {
      "symIds": [
        113892,
        113495
      ]
    }
  ]
}

> <SMILES>
[Pt](C#O)(OC([H])([H])[H])([C]1N(C(C2=C1C([H])=C([H])C([H])=C2[H])(C=3C([H])=C([H])C([H])=C([H])C3[H])C=4C([H])=C([H])C([H])=C([H])C4[H])C=5C([H])=C(C(=C6C5C(=C(C(=C6[H])[H])[H])[H])[H])[H])Cl

$$$$
