M00005628
  CDK     04222210433D

 31 31  0  0  0  0  0  0  0  0999 V2000
   -1.8568   -0.0023    0.6123 Pt  0  0  0  0  0  0  0  0  0  0  0  0
   -3.7796    0.1959    0.7589 C   0  0  0  0  0  0  0  0  0  0  0  0
   -4.9129    0.3188    0.8481 O   0  0  0  0  0  0  0  0  0  0  0  0
   -1.2608    1.5329   -0.5978 O   0  0  0  0  0  0  0  0  0  0  0  0
   -2.2334    1.8621   -1.5663 C   0  0  0  0  0  0  0  0  0  0  0  0
   -1.7566    2.5972   -2.2300 H   0  0  0  0  0  0  0  0  0  0  0  0
   -3.1036    2.3127   -1.0725 H   0  0  0  0  0  0  0  0  0  0  0  0
   -2.5162    0.9655   -2.1317 H   0  0  0  0  0  0  0  0  0  0  0  0
    0.4002   -0.1186    0.2715 P   0  0  0  0  0  0  0  0  0  0  0  0
    1.4730    1.3590    0.7076 C   0  0  0  0  0  0  0  0  0  0  0  0
    2.4139    0.9070    1.5552 C   0  0  0  0  0  0  0  0  0  0  0  0
    2.3944   -0.5316    1.8917 C   0  0  0  0  0  0  0  0  0  0  0  0
    1.4393   -1.2845    1.3197 C   0  0  0  0  0  0  0  0  0  0  0  0
    3.1813    1.5316    2.0048 H   0  0  0  0  0  0  0  0  0  0  0  0
    3.1440   -0.9103    2.5811 H   0  0  0  0  0  0  0  0  0  0  0  0
   -0.4059   -1.6874   -1.8443 C   0  0  0  0  0  0  0  0  0  0  0  0
    0.5977   -0.5869   -1.5430 C   0  0  0  0  0  0  0  0  0  0  0  0
   -1.4452   -1.4139   -1.5788 H   0  0  0  0  0  0  0  0  0  0  0  0
   -0.4140   -1.9141   -2.9213 H   0  0  0  0  0  0  0  0  0  0  0  0
   -0.1784   -2.6356   -1.3345 H   0  0  0  0  0  0  0  0  0  0  0  0
    1.6346   -0.8984   -1.7690 H   0  0  0  0  0  0  0  0  0  0  0  0
    0.3888    0.3175   -2.1611 H   0  0  0  0  0  0  0  0  0  0  0  0
    1.2499    2.7072    0.1695 C   0  0  0  0  0  0  0  0  0  0  0  0
    1.6788    2.8201   -0.8394 H   0  0  0  0  0  0  0  0  0  0  0  0
    0.1692    2.9514    0.0716 H   0  0  0  0  0  0  0  0  0  0  0  0
    1.6990    3.4857    0.8036 H   0  0  0  0  0  0  0  0  0  0  0  0
    1.1507   -2.7178    1.4585 C   0  0  0  0  0  0  0  0  0  0  0  0
    0.1548   -2.8925    1.9165 H   0  0  0  0  0  0  0  0  0  0  0  0
    1.1562   -3.2534    0.4969 H   0  0  0  0  0  0  0  0  0  0  0  0
    1.8796   -3.2242    2.1105 H   0  0  0  0  0  0  0  0  0  0  0  0
   -2.3418   -1.7933    2.0116 Cl  0  0  0  0  0  0  0  0  0  0  0  0
  2  3  3  0  0  0  0
  1  2  1  0  0  0  0
  5  6  1  0  0  0  0
  5  7  1  0  0  0  0
  5  8  1  0  0  0  0
  4  5  1  0  0  0  0
  1  4  1  0  0  0  0
 10  9  1  0  0  0  0
 11 10  2  0  0  0  0
 12 11  1  0  0  0  0
 12 13  2  0  0  0  0
 13  9  1  0  0  0  0
 11 14  1  0  0  0  0
 12 15  1  0  0  0  0
  1  9  1  0  0  0  0
 16 17  1  0  0  0  0
 16 18  1  0  0  0  0
 16 19  1  0  0  0  0
 16 20  1  0  0  0  0
 17 21  1  0  0  0  0
 17 22  1  0  0  0  0
  9 17  1  0  0  0  0
 23 24  1  0  0  0  0
 23 25  1  0  0  0  0
 23 26  1  0  0  0  0
 10 23  1  0  0  0  0
 27 28  1  0  0  0  0
 27 29  1  0  0  0  0
 27 30  1  0  0  0  0
 13 27  1  0  0  0  0
  1 31  1  0  0  0  0
M  END
> <PM6_ENERGY>
-326.999

> <UID>
NUCQCIRRGJQDJP-FEMJEKOFNA-M

> <FITNESS>
1.14343

> <GCODE>
6449

> <GraphENC>
6449 72_1_0,80_65_1,115_55_1,88_67_1,127440_32_1,127447_31_1,127568_31_1, 72_0_80_0_SINGLE_Xlig:0_Xlig:1,72_2_115_1_SINGLE_scaff:0_MPhosphole:1,72_1_88_0_SINGLE_Xlig:0_Xlig:1,115_0_127440_0_SINGLE_LPhospholeSubR:0_SubRS:1,115_2_127447_0_SINGLE_LPhospholeSubAlpha:0_SubRS:1,115_3_127568_0_SINGLE_LPhospholeSubAlpha:0_SubRS:1, SymmetricSet [symIds=[127447, 127568]] 

> <GraphJson>
{
  "graphId": 6449,
  "gVertices": [
    {
      "lstAPs": [
        {
          "id": 167350,
          "atomPositionNumber": 0,
          "atomPositionNumberInMol": 0,
          "apClass": {
            "rule": "Xlig",
            "subClass": 0,
            "bndTyp": "SINGLE"
          },
          "dirVec": {
            "x": -2.3339,
            "y": -0.0087,
            "z": 0.8172
          }
        },
        {
          "id": 167351,
          "atomPositionNumber": 0,
          "atomPositionNumberInMol": 0,
          "apClass": {
            "rule": "Xlig",
            "subClass": 0,
            "bndTyp": "SINGLE"
          },
          "dirVec": {
            "x": 2.336,
            "y": -5.0E-4,
            "z": 0.829
          }
        },
        {
          "id": 167352,
          "atomPositionNumber": 0,
          "atomPositionNumberInMol": 0,
          "apClass": {
            "rule": "scaff",
            "subClass": 0,
            "bndTyp": "SINGLE"
          },
          "dirVec": {
            "x": -0.0095,
            "y": 0.0046,
            "z": -1.7113
          }
        }
      ],
      "lstSymAPs": [
        {
          "symIds": [
            0,
            1
          ]
        }
      ],
      "mol": {
        "atoms": [
          {
            "elSymbol": "Pt",
            "p3d": {
              "x": -0.0098,
              "y": 0.0049,
              "z": 0.6289
            }
          },
          {
            "elSymbol": "C",
            "p3d": {
              "x": -6.0E-4,
              "y": 0.0016,
              "z": 2.5609
            }
          },
          {
            "elSymbol": "O",
            "p3d": {
              "x": 0.0025,
              "y": -0.0041,
              "z": 3.6974
            }
          },
          {
            "elSymbol": "Du",
            "p3d": {
              "x": -0.007,
              "y": 1.0013,
              "z": 0.6372
            }
          },
          {
            "elSymbol": "Du",
            "p3d": {
              "x": -0.0014,
              "y": 0.9902,
              "z": 2.5698
            }
          }
        ],
        "bonds": [
          {
            "atomIds": [
              1,
              2
            ],
            "bo": "TRIPLE"
          },
          {
            "atomIds": [
              0,
              1
            ],
            "bo": "SINGLE"
          },
          {
            "atomIds": [
              3,
              0
            ],
            "bo": "SINGLE"
          },
          {
            "atomIds": [
              4,
              1
            ],
            "bo": "SINGLE"
          }
        ]
      },
      "vertexId": 72,
      "buildingBlockId": 0,
      "buildingBlockType": "SCAFFOLD",
      "isRCV": false,
      "properties": {
        "ATTACHMENT_POINTS": "1#Xlig:0:SINGLE:-2.3339%-0.0087%0.8172,Xlig:0:SINGLE:2.3360%-0.0005%0.8290,scaff:0:SINGLE:-0.0095%0.0046%-1.7113 "
      },
      "uniquefyingPropertyKeys": [],
      "allowedMutationTypes": [
        "DELETE",
        "EXTEND",
        "CHANGEBRANCH",
        "CHANGELINK",
        "ADDLINK",
        "DELETELINK",
        "DELETECHAIN"
      ],
      "vertexType": "MolecularFragment"
    },
    {
      "lstAPs": [
        {
          "id": 167353,
          "atomPositionNumber": 0,
          "atomPositionNumberInMol": 5,
          "apClass": {
            "rule": "Xlig",
            "subClass": 1,
            "bndTyp": "SINGLE"
          },
          "dirVec": {
            "x": -0.1753,
            "y": 0.0948,
            "z": -0.4464
          }
        }
      ],
      "lstSymAPs": [],
      "mol": {
        "atoms": [
          {
            "elSymbol": "O",
            "p3d": {
              "x": -0.3534,
              "y": 2.1044,
              "z": -0.7339
            }
          },
          {
            "elSymbol": "C",
            "p3d": {
              "x": -0.5345,
              "y": 2.7646,
              "z": 0.4801
            }
          },
          {
            "elSymbol": "H",
            "p3d": {
              "x": -0.3728,
              "y": 3.8337,
              "z": 0.2724
            }
          },
          {
            "elSymbol": "H",
            "p3d": {
              "x": 0.1816,
              "y": 2.4161,
              "z": 1.2384
            }
          },
          {
            "elSymbol": "H",
            "p3d": {
              "x": -1.553,
              "y": 2.6149,
              "z": 0.8489
            }
          }
        ],
        "bonds": [
          {
            "atomIds": [
              1,
              2
            ],
            "bo": "SINGLE"
          },
          {
            "atomIds": [
              1,
              3
            ],
            "bo": "SINGLE"
          },
          {
            "atomIds": [
              1,
              4
            ],
            "bo": "SINGLE"
          },
          {
            "atomIds": [
              0,
              1
            ],
            "bo": "SINGLE"
          }
        ]
      },
      "vertexId": 80,
      "buildingBlockId": 64,
      "buildingBlockType": "FRAGMENT",
      "isRCV": false,
      "properties": {
        "ATTACHMENT_POINTS": "1#Xlig:1:SINGLE:-0.1753%0.0948%-0.4464 "
      },
      "uniquefyingPropertyKeys": [],
      "allowedMutationTypes": [
        "DELETE",
        "EXTEND",
        "CHANGEBRANCH",
        "CHANGELINK",
        "ADDLINK",
        "DELETELINK",
        "DELETECHAIN"
      ],
      "vertexType": "MolecularFragment"
    },
    {
      "lstAPs": [
        {
          "id": 167354,
          "atomPositionNumber": 0,
          "atomPositionNumberInMol": 10,
          "apClass": {
            "rule": "LPhospholeSubR",
            "subClass": 0,
            "bndTyp": "SINGLE"
          },
          "dirVec": {
            "x": 4.21,
            "y": -5.7776,
            "z": -2.4063
          }
        },
        {
          "id": 167355,
          "atomPositionNumber": 0,
          "atomPositionNumberInMol": 10,
          "apClass": {
            "rule": "MPhosphole",
            "subClass": 1,
            "bndTyp": "SINGLE"
          },
          "dirVec": {
            "x": 1.5693,
            "y": -5.3781,
            "z": -4.7398
          }
        },
        {
          "id": 167356,
          "atomPositionNumber": 1,
          "atomPositionNumberInMol": 11,
          "apClass": {
            "rule": "LPhospholeSubAlpha",
            "subClass": 0,
            "bndTyp": "SINGLE"
          },
          "dirVec": {
            "x": 4.3472,
            "y": -8.5987,
            "z": -4.7607
          }
        },
        {
          "id": 167357,
          "atomPositionNumber": 4,
          "atomPositionNumberInMol": 14,
          "apClass": {
            "rule": "LPhospholeSubAlpha",
            "subClass": 0,
            "bndTyp": "SINGLE"
          },
          "dirVec": {
            "x": 4.7612,
            "y": -2.979,
            "z": -4.8399
          }
        }
      ],
      "lstSymAPs": [
        {
          "symIds": [
            2,
            3
          ]
        }
      ],
      "mol": {
        "atoms": [
          {
            "elSymbol": "P",
            "p3d": {
              "x": 3.7869,
              "y": -5.7373,
              "z": -4.1775
            }
          },
          {
            "elSymbol": "C",
            "p3d": {
              "x": 4.6962,
              "y": -7.134,
              "z": -4.9215
            }
          },
          {
            "elSymbol": "C",
            "p3d": {
              "x": 5.7131,
              "y": -6.6248,
              "z": -5.5939
            }
          },
          {
            "elSymbol": "C",
            "p3d": {
              "x": 5.829,
              "y": -5.1544,
              "z": -5.5761
            }
          },
          {
            "elSymbol": "C",
            "p3d": {
              "x": 4.9136,
              "y": -4.4844,
              "z": -4.9337
            }
          },
          {
            "elSymbol": "H",
            "p3d": {
              "x": 6.3586,
              "y": -7.3193,
              "z": -6.107
            }
          },
          {
            "elSymbol": "H",
            "p3d": {
              "x": 6.5956,
              "y": -4.5443,
              "z": -6.0507
            }
          }
        ],
        "bonds": [
          {
            "atomIds": [
              1,
              0
            ],
            "bo": "SINGLE"
          },
          {
            "atomIds": [
              2,
              1
            ],
            "bo": "DOUBLE"
          },
          {
            "atomIds": [
              3,
              2
            ],
            "bo": "SINGLE"
          },
          {
            "atomIds": [
              3,
              4
            ],
            "bo": "DOUBLE"
          },
          {
            "atomIds": [
              4,
              0
            ],
            "bo": "SINGLE"
          },
          {
            "atomIds": [
              2,
              5
            ],
            "bo": "SINGLE"
          },
          {
            "atomIds": [
              3,
              6
            ],
            "bo": "SINGLE"
          }
        ]
      },
      "vertexId": 115,
      "buildingBlockId": 54,
      "buildingBlockType": "FRAGMENT",
      "isRCV": false,
      "properties": {
        "ATTACHMENT_POINTS": "1#LPhospholeSubR:0:SINGLE:4.2100%-5.7776%-2.4063,MPhosphole:1:SINGLE:1.5693%-5.3781%-4.7398 2#LPhospholeSubAlpha:0:SINGLE:4.3472%-8.5987%-4.7607 5#LPhospholeSubAlpha:0:SINGLE:4.7612%-2.9790%-4.8399 "
      },
      "uniquefyingPropertyKeys": [],
      "allowedMutationTypes": [
        "DELETE",
        "EXTEND",
        "CHANGEBRANCH",
        "CHANGELINK",
        "ADDLINK",
        "DELETELINK",
        "DELETECHAIN"
      ],
      "vertexType": "MolecularFragment"
    },
    {
      "lstAPs": [
        {
          "id": 167358,
          "atomPositionNumber": 0,
          "atomPositionNumberInMol": 32,
          "apClass": {
            "rule": "Xlig",
            "subClass": 1,
            "bndTyp": "SINGLE"
          },
          "dirVec": {
            "x": -0.0053,
            "y": -0.0027,
            "z": 0.63
          }
        }
      ],
      "lstSymAPs": [],
      "mol": {
        "atoms": [
          {
            "elSymbol": "Cl",
            "p3d": {
              "x": 2.3243,
              "y": -0.0063,
              "z": 0.8189
            }
          }
        ],
        "bonds": []
      },
      "vertexId": 88,
      "buildingBlockId": 66,
      "buildingBlockType": "FRAGMENT",
      "isRCV": false,
      "properties": {
        "ATTACHMENT_POINTS": "1#Xlig:1:SINGLE:-0.0053%-0.0027%0.6300 "
      },
      "uniquefyingPropertyKeys": [],
      "allowedMutationTypes": [
        "DELETE",
        "EXTEND",
        "CHANGEBRANCH",
        "CHANGELINK",
        "ADDLINK",
        "DELETELINK",
        "DELETECHAIN"
      ],
      "vertexType": "MolecularFragment"
    },
    {
      "lstAPs": [
        {
          "id": 167383,
          "atomPositionNumber": 1,
          "atomPositionNumberInMol": 18,
          "apClass": {
            "rule": "SubRS",
            "subClass": 1,
            "bndTyp": "SINGLE"
          },
          "dirVec": {
            "x": 0.2985,
            "y": 0.384,
            "z": -0.6258
          }
        }
      ],
      "lstSymAPs": [],
      "mol": {
        "atoms": [
          {
            "elSymbol": "C",
            "p3d": {
              "x": -1.0244,
              "y": -0.2225,
              "z": 1.3991
            }
          },
          {
            "elSymbol": "C",
            "p3d": {
              "x": 0.3973,
              "y": -0.042,
              "z": 0.8195
            }
          },
          {
            "elSymbol": "H",
            "p3d": {
              "x": -1.5635,
              "y": -0.9908,
              "z": 0.8263
            }
          },
          {
            "elSymbol": "H",
            "p3d": {
              "x": -0.941,
              "y": -0.535,
              "z": 2.446
            }
          },
          {
            "elSymbol": "H",
            "p3d": {
              "x": -1.5586,
              "y": 0.7335,
              "z": 1.3382
            }
          },
          {
            "elSymbol": "H",
            "p3d": {
              "x": 0.9335,
              "y": 0.7221,
              "z": 1.4011
            }
          },
          {
            "elSymbol": "H",
            "p3d": {
              "x": 0.927,
              "y": -1.0102,
              "z": 0.9001
            }
          }
        ],
        "bonds": [
          {
            "atomIds": [
              0,
              1
            ],
            "bo": "SINGLE"
          },
          {
            "atomIds": [
              0,
              2
            ],
            "bo": "SINGLE"
          },
          {
            "atomIds": [
              0,
              3
            ],
            "bo": "SINGLE"
          },
          {
            "atomIds": [
              0,
              4
            ],
            "bo": "SINGLE"
          },
          {
            "atomIds": [
              1,
              5
            ],
            "bo": "SINGLE"
          },
          {
            "atomIds": [
              1,
              6
            ],
            "bo": "SINGLE"
          }
        ]
      },
      "vertexId": 127440,
      "buildingBlockId": 31,
      "buildingBlockType": "FRAGMENT",
      "isRCV": false,
      "properties": {
        "ATTACHMENT_POINTS": "2#SubRS:1:SINGLE:0.2985%0.3840%-0.6258 "
      },
      "uniquefyingPropertyKeys": [],
      "allowedMutationTypes": [
        "DELETE",
        "EXTEND",
        "CHANGEBRANCH",
        "CHANGELINK",
        "ADDLINK",
        "DELETELINK",
        "DELETECHAIN"
      ],
      "vertexType": "MolecularFragment"
    },
    {
      "lstAPs": [
        {
          "id": 167384,
          "atomPositionNumber": 0,
          "atomPositionNumberInMol": 24,
          "apClass": {
            "rule": "SubRS",
            "subClass": 1,
            "bndTyp": "SINGLE"
          },
          "dirVec": {
            "x": 0.2865,
            "y": 0.3959,
            "z": -0.6387
          }
        }
      ],
      "lstSymAPs": [],
      "mol": {
        "atoms": [
          {
            "elSymbol": "C",
            "p3d": {
              "x": 0.3969,
              "y": -0.0496,
              "z": 0.8235
            }
          },
          {
            "elSymbol": "H",
            "p3d": {
              "x": -0.6146,
              "y": -0.163,
              "z": 1.2402
            }
          },
          {
            "elSymbol": "H",
            "p3d": {
              "x": 0.9335,
              "y": -0.9979,
              "z": 0.8998
            }
          },
          {
            "elSymbol": "H",
            "p3d": {
              "x": 0.9252,
              "y": 0.7237,
              "z": 1.3995
            }
          }
        ],
        "bonds": [
          {
            "atomIds": [
              0,
              1
            ],
            "bo": "SINGLE"
          },
          {
            "atomIds": [
              0,
              2
            ],
            "bo": "SINGLE"
          },
          {
            "atomIds": [
              0,
              3
            ],
            "bo": "SINGLE"
          }
        ]
      },
      "vertexId": 127447,
      "buildingBlockId": 30,
      "buildingBlockType": "FRAGMENT",
      "isRCV": false,
      "properties": {
        "ATTACHMENT_POINTS": "1#SubRS:1:SINGLE:0.2865%0.3959%-0.6387 "
      },
      "uniquefyingPropertyKeys": [],
      "allowedMutationTypes": [
        "DELETE",
        "EXTEND",
        "CHANGEBRANCH",
        "CHANGELINK",
        "ADDLINK",
        "DELETELINK",
        "DELETECHAIN"
      ],
      "vertexType": "MolecularFragment"
    },
    {
      "lstAPs": [
        {
          "id": 167385,
          "atomPositionNumber": 0,
          "atomPositionNumberInMol": 28,
          "apClass": {
            "rule": "SubRS",
            "subClass": 1,
            "bndTyp": "SINGLE"
          },
          "dirVec": {
            "x": 0.2865,
            "y": 0.3959,
            "z": -0.6387
          }
        }
      ],
      "lstSymAPs": [],
      "mol": {
        "atoms": [
          {
            "elSymbol": "C",
            "p3d": {
              "x": 0.3969,
              "y": -0.0496,
              "z": 0.8235
            }
          },
          {
            "elSymbol": "H",
            "p3d": {
              "x": -0.6146,
              "y": -0.163,
              "z": 1.2402
            }
          },
          {
            "elSymbol": "H",
            "p3d": {
              "x": 0.9335,
              "y": -0.9979,
              "z": 0.8998
            }
          },
          {
            "elSymbol": "H",
            "p3d": {
              "x": 0.9252,
              "y": 0.7237,
              "z": 1.3995
            }
          }
        ],
        "bonds": [
          {
            "atomIds": [
              0,
              1
            ],
            "bo": "SINGLE"
          },
          {
            "atomIds": [
              0,
              2
            ],
            "bo": "SINGLE"
          },
          {
            "atomIds": [
              0,
              3
            ],
            "bo": "SINGLE"
          }
        ]
      },
      "vertexId": 127568,
      "buildingBlockId": 30,
      "buildingBlockType": "FRAGMENT",
      "isRCV": false,
      "properties": {
        "ATTACHMENT_POINTS": "1#SubRS:1:SINGLE:0.2865%0.3959%-0.6387 "
      },
      "uniquefyingPropertyKeys": [],
      "allowedMutationTypes": [
        "DELETE",
        "EXTEND",
        "CHANGEBRANCH",
        "CHANGELINK",
        "ADDLINK",
        "DELETELINK",
        "DELETECHAIN"
      ],
      "vertexType": "MolecularFragment"
    }
  ],
  "gEdges": [
    {
      "srcAPID": 167350,
      "trgAPID": 167353,
      "bondType": "SINGLE"
    },
    {
      "srcAPID": 167352,
      "trgAPID": 167355,
      "bondType": "SINGLE"
    },
    {
      "srcAPID": 167351,
      "trgAPID": 167358,
      "bondType": "SINGLE"
    },
    {
      "srcAPID": 167354,
      "trgAPID": 167383,
      "bondType": "SINGLE"
    },
    {
      "srcAPID": 167356,
      "trgAPID": 167384,
      "bondType": "SINGLE"
    },
    {
      "srcAPID": 167357,
      "trgAPID": 167385,
      "bondType": "SINGLE"
    }
  ],
  "gRings": [],
  "symVertices": [
    {
      "symIds": [
        127447,
        127568
      ]
    }
  ]
}

> <SMILES>
[Pt](C#O)(OC([H])([H])[H])([P]1(C(=C(C(=C1C([H])([H])[H])[H])[H])C([H])([H])[H])C(C([H])([H])[H])([H])[H])Cl

$$$$
