M00010632
  CDK     04222212293D

 30 31  0  0  0  0  0  0  0  0999 V2000
   -2.5788    0.0788    0.5303 Pt  0  0  0  0  0  0  0  0  0  0  0  0
   -4.5284    0.2129    0.3792 C   0  0  0  0  0  0  0  0  0  0  0  0
   -5.6626    0.2919    0.2922 O   0  0  0  0  0  0  0  0  0  0  0  0
   -2.2727    1.9077   -0.1591 C   0  0  0  0  0  0  0  0  0  0  0  0
   -2.0934    2.9793   -0.5536 N   0  0  0  0  0  0  0  0  0  0  0  0
   -0.3016    0.0267    0.6293 P   0  0  0  0  0  0  0  0  0  0  0  0
    0.4349   -1.2746    1.7744 C   0  0  0  0  0  0  0  0  0  0  0  0
   -0.3558   -1.9324    2.1967 H   0  0  0  0  0  0  0  0  0  0  0  0
    1.1267   -1.9450    1.2330 H   0  0  0  0  0  0  0  0  0  0  0  0
    1.1369   -0.4415    2.8457 C   0  0  0  0  0  0  0  0  0  0  0  0
    2.0140   -0.9899    3.2437 H   0  0  0  0  0  0  0  0  0  0  0  0
    0.4666   -0.3003    3.7211 H   0  0  0  0  0  0  0  0  0  0  0  0
    1.5823    0.9343    2.3042 C   0  0  0  0  0  0  0  0  0  0  0  0
    2.5550    0.8389    1.7791 H   0  0  0  0  0  0  0  0  0  0  0  0
    1.7824    1.6209    3.1525 H   0  0  0  0  0  0  0  0  0  0  0  0
    0.5276    1.5392    1.3787 C   0  0  0  0  0  0  0  0  0  0  0  0
    0.9547    2.2097    0.6095 H   0  0  0  0  0  0  0  0  0  0  0  0
   -0.2104    2.1577    1.9310 H   0  0  0  0  0  0  0  0  0  0  0  0
    0.3057   -0.2613   -1.0831 C   0  0  0  0  0  0  0  0  0  0  0  0
    1.1142   -0.7268   -3.6994 C   0  0  0  0  0  0  0  0  0  0  0  0
   -0.6570   -0.5536   -2.0526 C   0  0  0  0  0  0  0  0  0  0  0  0
    1.6640   -0.1963   -1.3981 C   0  0  0  0  0  0  0  0  0  0  0  0
    2.0668   -0.4312   -2.7168 C   0  0  0  0  0  0  0  0  0  0  0  0
   -0.2430   -0.7888   -3.3700 C   0  0  0  0  0  0  0  0  0  0  0  0
   -1.7301   -0.6027   -1.8137 H   0  0  0  0  0  0  0  0  0  0  0  0
    2.4211    0.0342   -0.6467 H   0  0  0  0  0  0  0  0  0  0  0  0
    3.1223   -0.3822   -2.9812 H   0  0  0  0  0  0  0  0  0  0  0  0
   -0.9817   -1.0171   -4.1385 H   0  0  0  0  0  0  0  0  0  0  0  0
    1.4329   -0.9078   -4.7269 H   0  0  0  0  0  0  0  0  0  0  0  0
   -3.0926   -2.0806    1.3390 Cl  0  0  0  0  0  0  0  0  0  0  0  0
  2  3  3  0  0  0  0
  1  2  1  0  0  0  0
  4  5  3  0  0  0  0
  1  4  1  0  0  0  0
  7  6  1  0  0  0  0
  8  7  1  0  0  0  0
  9  7  1  0  0  0  0
 10  7  1  0  0  0  0
 11 10  1  0  0  0  0
 12 10  1  0  0  0  0
 13 10  1  0  0  0  0
 13 16  1  0  0  0  0
 14 13  1  0  0  0  0
 15 13  1  0  0  0  0
 16  6  1  0  0  0  0
 17 16  1  0  0  0  0
 18 16  1  0  0  0  0
  1  6  1  0  0  0  0
 19 22  1  0  0  0  0
 22 23  2  0  0  0  0
 20 23  1  0  0  0  0
 20 24  2  0  0  0  0
 21 24  1  0  0  0  0
 19 21  2  0  0  0  0
 23 27  1  0  0  0  0
 24 28  1  0  0  0  0
 20 29  1  0  0  0  0
 21 25  1  0  0  0  0
 22 26  1  0  0  0  0
  6 19  1  0  0  0  0
  1 30  1  0  0  0  0
M  END
> <PM6_ENERGY>
-44.728

> <UID>
QODFJBUVWWAFKJ-HFQCVGTGNA-M

> <FITNESS>
1.14027

> <GCODE>
11659

> <GraphENC>
11659 72_1_0,81_66_1,104_42_1,88_67_1,238593_36_1, 72_0_81_0_SINGLE_Xlig:0_Xlig:1,72_2_104_1_SINGLE_scaff:0_MPhosphine:1,72_1_88_0_SINGLE_Xlig:0_Xlig:1,104_0_238593_0_SINGLE_LPhosphineSubM:0_SubArS:1, 

> <GraphJson>
{
  "graphId": 11659,
  "gVertices": [
    {
      "lstAPs": [
        {
          "id": 311557,
          "atomPositionNumber": 0,
          "atomPositionNumberInMol": 0,
          "apClass": {
            "rule": "Xlig",
            "subClass": 0,
            "bndTyp": "SINGLE"
          },
          "dirVec": {
            "x": -2.3339,
            "y": -0.0087,
            "z": 0.8172
          }
        },
        {
          "id": 311558,
          "atomPositionNumber": 0,
          "atomPositionNumberInMol": 0,
          "apClass": {
            "rule": "Xlig",
            "subClass": 0,
            "bndTyp": "SINGLE"
          },
          "dirVec": {
            "x": 2.336,
            "y": -5.0E-4,
            "z": 0.829
          }
        },
        {
          "id": 311559,
          "atomPositionNumber": 0,
          "atomPositionNumberInMol": 0,
          "apClass": {
            "rule": "scaff",
            "subClass": 0,
            "bndTyp": "SINGLE"
          },
          "dirVec": {
            "x": -0.0095,
            "y": 0.0046,
            "z": -1.7113
          }
        }
      ],
      "lstSymAPs": [
        {
          "symIds": [
            0,
            1
          ]
        }
      ],
      "mol": {
        "atoms": [
          {
            "elSymbol": "Pt",
            "p3d": {
              "x": -0.0098,
              "y": 0.0049,
              "z": 0.6289
            }
          },
          {
            "elSymbol": "C",
            "p3d": {
              "x": -6.0E-4,
              "y": 0.0016,
              "z": 2.5609
            }
          },
          {
            "elSymbol": "O",
            "p3d": {
              "x": 0.0025,
              "y": -0.0041,
              "z": 3.6974
            }
          },
          {
            "elSymbol": "Du",
            "p3d": {
              "x": -0.007,
              "y": 1.0013,
              "z": 0.6372
            }
          },
          {
            "elSymbol": "Du",
            "p3d": {
              "x": -0.0014,
              "y": 0.9902,
              "z": 2.5698
            }
          }
        ],
        "bonds": [
          {
            "atomIds": [
              1,
              2
            ],
            "bo": "TRIPLE"
          },
          {
            "atomIds": [
              0,
              1
            ],
            "bo": "SINGLE"
          },
          {
            "atomIds": [
              3,
              0
            ],
            "bo": "SINGLE"
          },
          {
            "atomIds": [
              4,
              1
            ],
            "bo": "SINGLE"
          }
        ]
      },
      "vertexId": 72,
      "buildingBlockId": 0,
      "buildingBlockType": "SCAFFOLD",
      "isRCV": false,
      "properties": {
        "ATTACHMENT_POINTS": "1#Xlig:0:SINGLE:-2.3339%-0.0087%0.8172,Xlig:0:SINGLE:2.3360%-0.0005%0.8290,scaff:0:SINGLE:-0.0095%0.0046%-1.7113 "
      },
      "uniquefyingPropertyKeys": [],
      "allowedMutationTypes": [
        "DELETE",
        "EXTEND",
        "CHANGEBRANCH",
        "CHANGELINK",
        "ADDLINK",
        "DELETELINK",
        "DELETECHAIN"
      ],
      "vertexType": "MolecularFragment"
    },
    {
      "lstAPs": [
        {
          "id": 311560,
          "atomPositionNumber": 0,
          "atomPositionNumberInMol": 5,
          "apClass": {
            "rule": "Xlig",
            "subClass": 1,
            "bndTyp": "SINGLE"
          },
          "dirVec": {
            "x": 0.0192,
            "y": -0.0048,
            "z": -0.5645
          }
        }
      ],
      "lstSymAPs": [],
      "mol": {
        "atoms": [
          {
            "elSymbol": "C",
            "p3d": {
              "x": -1.967,
              "y": -0.0075,
              "z": -0.4937
            }
          },
          {
            "elSymbol": "N",
            "p3d": {
              "x": -3.1263,
              "y": -0.0054,
              "z": -0.4354
            }
          },
          {
            "elSymbol": "Du",
            "p3d": {
              "x": -1.9744,
              "y": 0.9926,
              "z": -0.5036
            }
          }
        ],
        "bonds": [
          {
            "atomIds": [
              0,
              1
            ],
            "bo": "TRIPLE"
          },
          {
            "atomIds": [
              2,
              0
            ],
            "bo": "SINGLE"
          }
        ]
      },
      "vertexId": 81,
      "buildingBlockId": 65,
      "buildingBlockType": "FRAGMENT",
      "isRCV": false,
      "properties": {
        "ATTACHMENT_POINTS": "1#Xlig:1:SINGLE:0.0192%-0.0048%-0.5645 "
      },
      "uniquefyingPropertyKeys": [],
      "allowedMutationTypes": [
        "DELETE",
        "EXTEND",
        "CHANGEBRANCH",
        "CHANGELINK",
        "ADDLINK",
        "DELETELINK",
        "DELETECHAIN"
      ],
      "vertexType": "MolecularFragment"
    },
    {
      "lstAPs": [
        {
          "id": 311561,
          "atomPositionNumber": 0,
          "atomPositionNumberInMol": 8,
          "apClass": {
            "rule": "LPhosphineSubM",
            "subClass": 0,
            "bndTyp": "SINGLE"
          },
          "dirVec": {
            "x": 2.723,
            "y": 1.7542,
            "z": 13.2677
          }
        },
        {
          "id": 311562,
          "atomPositionNumber": 0,
          "atomPositionNumberInMol": 8,
          "apClass": {
            "rule": "MPhosphine",
            "subClass": 1,
            "bndTyp": "SINGLE"
          },
          "dirVec": {
            "x": 4.8307,
            "y": -0.2673,
            "z": 11.5812
          }
        }
      ],
      "lstSymAPs": [],
      "mol": {
        "atoms": [
          {
            "elSymbol": "P",
            "p3d": {
              "x": 3.2259,
              "y": 1.2767,
              "z": 11.5745
            }
          },
          {
            "elSymbol": "C",
            "p3d": {
              "x": 1.6598,
              "y": 0.7995,
              "z": 10.6875
            }
          },
          {
            "elSymbol": "H",
            "p3d": {
              "x": 1.6974,
              "y": -0.248,
              "z": 10.3885
            }
          },
          {
            "elSymbol": "H",
            "p3d": {
              "x": 0.7981,
              "y": 0.9391,
              "z": 11.3443
            }
          },
          {
            "elSymbol": "C",
            "p3d": {
              "x": 1.5701,
              "y": 1.7203,
              "z": 9.4939
            }
          },
          {
            "elSymbol": "H",
            "p3d": {
              "x": 0.5288,
              "y": 1.8359,
              "z": 9.1795
            }
          },
          {
            "elSymbol": "H",
            "p3d": {
              "x": 2.1382,
              "y": 1.3052,
              "z": 8.655
            }
          },
          {
            "elSymbol": "C",
            "p3d": {
              "x": 2.1438,
              "y": 3.0759,
              "z": 9.8936
            }
          },
          {
            "elSymbol": "H",
            "p3d": {
              "x": 1.4578,
              "y": 3.5682,
              "z": 10.5909
            }
          },
          {
            "elSymbol": "H",
            "p3d": {
              "x": 2.2815,
              "y": 3.6992,
              "z": 9.0137
            }
          },
          {
            "elSymbol": "C",
            "p3d": {
              "x": 3.4838,
              "y": 2.7861,
              "z": 10.5731
            }
          },
          {
            "elSymbol": "H",
            "p3d": {
              "x": 3.7886,
              "y": 3.6232,
              "z": 11.214
            }
          },
          {
            "elSymbol": "H",
            "p3d": {
              "x": 4.2729,
              "y": 2.6329,
              "z": 9.835
            }
          }
        ],
        "bonds": [
          {
            "atomIds": [
              1,
              0
            ],
            "bo": "SINGLE"
          },
          {
            "atomIds": [
              2,
              1
            ],
            "bo": "SINGLE"
          },
          {
            "atomIds": [
              3,
              1
            ],
            "bo": "SINGLE"
          },
          {
            "atomIds": [
              4,
              1
            ],
            "bo": "SINGLE"
          },
          {
            "atomIds": [
              5,
              4
            ],
            "bo": "SINGLE"
          },
          {
            "atomIds": [
              6,
              4
            ],
            "bo": "SINGLE"
          },
          {
            "atomIds": [
              7,
              4
            ],
            "bo": "SINGLE"
          },
          {
            "atomIds": [
              7,
              10
            ],
            "bo": "SINGLE"
          },
          {
            "atomIds": [
              8,
              7
            ],
            "bo": "SINGLE"
          },
          {
            "atomIds": [
              9,
              7
            ],
            "bo": "SINGLE"
          },
          {
            "atomIds": [
              10,
              0
            ],
            "bo": "SINGLE"
          },
          {
            "atomIds": [
              11,
              10
            ],
            "bo": "SINGLE"
          },
          {
            "atomIds": [
              12,
              10
            ],
            "bo": "SINGLE"
          }
        ]
      },
      "vertexId": 104,
      "buildingBlockId": 41,
      "buildingBlockType": "FRAGMENT",
      "isRCV": false,
      "properties": {
        "ATTACHMENT_POINTS": "1#LPhosphineSubM:0:SINGLE:2.7230%1.7542%13.2677,MPhosphine:1:SINGLE:4.8307%-0.2673%11.5812 "
      },
      "uniquefyingPropertyKeys": [],
      "allowedMutationTypes": [
        "DELETE",
        "EXTEND",
        "CHANGEBRANCH",
        "CHANGELINK",
        "ADDLINK",
        "DELETELINK",
        "DELETECHAIN"
      ],
      "vertexType": "MolecularFragment"
    },
    {
      "lstAPs": [
        {
          "id": 311563,
          "atomPositionNumber": 0,
          "atomPositionNumberInMol": 32,
          "apClass": {
            "rule": "Xlig",
            "subClass": 1,
            "bndTyp": "SINGLE"
          },
          "dirVec": {
            "x": -0.0053,
            "y": -0.0027,
            "z": 0.63
          }
        }
      ],
      "lstSymAPs": [],
      "mol": {
        "atoms": [
          {
            "elSymbol": "Cl",
            "p3d": {
              "x": 2.3243,
              "y": -0.0063,
              "z": 0.8189
            }
          }
        ],
        "bonds": []
      },
      "vertexId": 88,
      "buildingBlockId": 66,
      "buildingBlockType": "FRAGMENT",
      "isRCV": false,
      "properties": {
        "ATTACHMENT_POINTS": "1#Xlig:1:SINGLE:-0.0053%-0.0027%0.6300 "
      },
      "uniquefyingPropertyKeys": [],
      "allowedMutationTypes": [
        "DELETE",
        "EXTEND",
        "CHANGEBRANCH",
        "CHANGELINK",
        "ADDLINK",
        "DELETELINK",
        "DELETECHAIN"
      ],
      "vertexType": "MolecularFragment"
    },
    {
      "lstAPs": [
        {
          "id": 311588,
          "atomPositionNumber": 0,
          "atomPositionNumberInMol": 21,
          "apClass": {
            "rule": "SubArS",
            "subClass": 1,
            "bndTyp": "SINGLE"
          },
          "dirVec": {
            "x": 0.2973,
            "y": 0.3873,
            "z": -0.6389
          }
        }
      ],
      "lstSymAPs": [],
      "mol": {
        "atoms": [
          {
            "elSymbol": "C",
            "p3d": {
              "x": 1.6995,
              "y": 0.5593,
              "z": -1.2083
            }
          },
          {
            "elSymbol": "C",
            "p3d": {
              "x": 4.2563,
              "y": 0.8754,
              "z": -2.2592
            }
          },
          {
            "elSymbol": "C",
            "p3d": {
              "x": 2.3334,
              "y": 1.79,
              "z": -1.1338
            }
          },
          {
            "elSymbol": "C",
            "p3d": {
              "x": 2.3422,
              "y": -0.5107,
              "z": -1.8125
            }
          },
          {
            "elSymbol": "C",
            "p3d": {
              "x": 3.612,
              "y": -0.3527,
              "z": -2.3321
            }
          },
          {
            "elSymbol": "C",
            "p3d": {
              "x": 3.6062,
              "y": 1.9513,
              "z": -1.6526
            }
          },
          {
            "elSymbol": "H",
            "p3d": {
              "x": 1.833,
              "y": 2.6461,
              "z": -0.6488
            }
          },
          {
            "elSymbol": "H",
            "p3d": {
              "x": 1.8361,
              "y": -1.4773,
              "z": -1.887
            }
          },
          {
            "elSymbol": "H",
            "p3d": {
              "x": 4.115,
              "y": -1.2043,
              "z": -2.8152
            }
          },
          {
            "elSymbol": "H",
            "p3d": {
              "x": 4.1097,
              "y": 2.9214,
              "z": -1.5842
            }
          },
          {
            "elSymbol": "H",
            "p3d": {
              "x": 5.2498,
              "y": 0.9926,
              "z": -2.665
            }
          }
        ],
        "bonds": [
          {
            "atomIds": [
              0,
              3
            ],
            "bo": "SINGLE"
          },
          {
            "atomIds": [
              3,
              4
            ],
            "bo": "DOUBLE"
          },
          {
            "atomIds": [
              1,
              4
            ],
            "bo": "SINGLE"
          },
          {
            "atomIds": [
              1,
              5
            ],
            "bo": "DOUBLE"
          },
          {
            "atomIds": [
              2,
              5
            ],
            "bo": "SINGLE"
          },
          {
            "atomIds": [
              0,
              2
            ],
            "bo": "DOUBLE"
          },
          {
            "atomIds": [
              4,
              8
            ],
            "bo": "SINGLE"
          },
          {
            "atomIds": [
              5,
              9
            ],
            "bo": "SINGLE"
          },
          {
            "atomIds": [
              1,
              10
            ],
            "bo": "SINGLE"
          },
          {
            "atomIds": [
              2,
              6
            ],
            "bo": "SINGLE"
          },
          {
            "atomIds": [
              3,
              7
            ],
            "bo": "SINGLE"
          }
        ]
      },
      "vertexId": 238593,
      "buildingBlockId": 35,
      "buildingBlockType": "FRAGMENT",
      "isRCV": false,
      "properties": {
        "ATTACHMENT_POINTS": "1#SubArS:1:SINGLE:0.2973%0.3873%-0.6389 "
      },
      "uniquefyingPropertyKeys": [],
      "allowedMutationTypes": [
        "DELETE",
        "EXTEND",
        "CHANGEBRANCH",
        "CHANGELINK",
        "ADDLINK",
        "DELETELINK",
        "DELETECHAIN"
      ],
      "vertexType": "MolecularFragment"
    }
  ],
  "gEdges": [
    {
      "srcAPID": 311557,
      "trgAPID": 311560,
      "bondType": "SINGLE"
    },
    {
      "srcAPID": 311559,
      "trgAPID": 311562,
      "bondType": "SINGLE"
    },
    {
      "srcAPID": 311558,
      "trgAPID": 311563,
      "bondType": "SINGLE"
    },
    {
      "srcAPID": 311561,
      "trgAPID": 311588,
      "bondType": "SINGLE"
    }
  ],
  "gRings": [],
  "symVertices": []
}

> <SMILES>
[Pt](C#O)(C#N)([P]1(C([H])([H])C([H])([H])C(C1([H])[H])([H])[H])C=2C(=C(C(=C(C2[H])[H])[H])[H])[H])Cl

$$$$
