M00011194
  CDK     04222212413D

 65 70  0  0  0  0  0  0  0  0999 V2000
   -3.0752   -0.4358   -0.9227 Pt  0  0  0  0  0  0  0  0  0  0  0  0
   -4.9846   -0.7443   -0.9185 C   0  0  0  0  0  0  0  0  0  0  0  0
   -6.1131   -0.9293   -0.9017 O   0  0  0  0  0  0  0  0  0  0  0  0
   -3.5953    1.8098   -0.6095 S   0  0  0  0  0  0  0  0  0  0  0  0
   -3.7439    2.2869   -2.3553 C   0  0  0  0  0  0  0  0  0  0  0  0
   -4.5240    3.0521   -2.4466 H   0  0  0  0  0  0  0  0  0  0  0  0
   -4.0205    1.4320   -2.9790 H   0  0  0  0  0  0  0  0  0  0  0  0
   -2.8012    2.7096   -2.7162 H   0  0  0  0  0  0  0  0  0  0  0  0
   -0.2345   -0.3000    0.0631 N   0  0  0  0  0  0  0  0  0  0  0  0
   -0.3700    0.1785   -2.1667 C   0  0  0  0  0  0  0  0  0  0  0  0
   -0.8376    0.4117   -3.4524 C   0  0  0  0  0  0  0  0  0  0  0  0
   -1.9052    0.3550   -3.6747 H   0  0  0  0  0  0  0  0  0  0  0  0
    0.1042    0.7187   -4.4505 C   0  0  0  0  0  0  0  0  0  0  0  0
   -0.2376    0.9078   -5.4683 H   0  0  0  0  0  0  0  0  0  0  0  0
    1.4674    0.7798   -4.1542 C   0  0  0  0  0  0  0  0  0  0  0  0
    2.1818    1.0146   -4.9448 H   0  0  0  0  0  0  0  0  0  0  0  0
    1.9442    0.5391   -2.8510 C   0  0  0  0  0  0  0  0  0  0  0  0
    3.0102    0.5774   -2.6328 H   0  0  0  0  0  0  0  0  0  0  0  0
    1.0185    0.2461   -1.8657 C   0  0  0  0  0  0  0  0  0  0  0  0
    1.2330   -0.0999   -0.3863 C   0  0  0  0  0  0  0  0  0  0  0  0
   -1.1123   -0.1625   -0.9428 C   0  0  1  0  0  0  0  0  0  0  0  0
   -0.3407   -2.7320    1.1782 H   0  0  0  0  0  0  0  0  0  0  0  0
   -0.5636   -1.9117    1.8656 C   0  0  0  0  0  0  0  0  0  0  0  0
   -0.5834   -0.6002    1.4423 C   0  0  0  0  0  0  0  0  0  0  0  0
   -1.1567   -1.2200    4.1141 C   0  0  0  0  0  0  0  0  0  0  0  0
   -0.9286    0.4772    2.3354 C   0  0  0  0  0  0  0  0  0  0  0  0
   -0.8559   -2.2187    3.2238 C   0  0  0  0  0  0  0  0  0  0  0  0
   -1.2031    0.1464    3.6900 C   0  0  0  0  0  0  0  0  0  0  0  0
   -1.0171    1.8448    1.9255 C   0  0  0  0  0  0  0  0  0  0  0  0
   -0.8382   -3.2638    3.5339 H   0  0  0  0  0  0  0  0  0  0  0  0
   -1.7383    0.9245    5.6482 H   0  0  0  0  0  0  0  0  0  0  0  0
   -1.3762   -1.4497    5.1570 H   0  0  0  0  0  0  0  0  0  0  0  0
   -1.3444    2.8239    2.8302 C   0  0  0  0  0  0  0  0  0  0  0  0
   -0.8368    2.1015    0.8792 H   0  0  0  0  0  0  0  0  0  0  0  0
   -1.4244    3.8644    2.5163 H   0  0  0  0  0  0  0  0  0  0  0  0
   -1.6008    2.4944    4.1924 C   0  0  0  0  0  0  0  0  0  0  0  0
   -1.8578    3.2938    4.8863 H   0  0  0  0  0  0  0  0  0  0  0  0
   -1.5339    1.1898    4.6121 C   0  0  0  0  0  0  0  0  0  0  0  0
    2.0173   -1.4071   -0.3427 C   0  0  0  0  0  0  0  0  0  0  0  0
    3.3898   -1.3934   -0.0529 C   0  0  0  0  0  0  0  0  0  0  0  0
    3.8997   -0.4574    0.1792 H   0  0  0  0  0  0  0  0  0  0  0  0
    4.1231   -2.5831   -0.0646 C   0  0  0  0  0  0  0  0  0  0  0  0
    5.1867   -2.5643    0.1695 H   0  0  0  0  0  0  0  0  0  0  0  0
    3.4976   -3.7932   -0.3778 C   0  0  0  0  0  0  0  0  0  0  0  0
    4.0694   -4.7200   -0.3824 H   0  0  0  0  0  0  0  0  0  0  0  0
    2.1356   -3.8069   -0.6930 C   0  0  0  0  0  0  0  0  0  0  0  0
    1.6429   -4.7446   -0.9512 H   0  0  0  0  0  0  0  0  0  0  0  0
    1.3994   -2.6196   -0.6856 C   0  0  0  0  0  0  0  0  0  0  0  0
    0.3384   -2.6501   -0.9576 H   0  0  0  0  0  0  0  0  0  0  0  0
    1.8232    1.0206    0.4503 C   0  0  0  0  0  0  0  0  0  0  0  0
    2.2203    0.7611    1.7735 C   0  0  0  0  0  0  0  0  0  0  0  0
    2.1051   -0.2414    2.1914 H   0  0  0  0  0  0  0  0  0  0  0  0
    2.7511    1.7832    2.5621 C   0  0  0  0  0  0  0  0  0  0  0  0
    3.0527    1.5749    3.5882 H   0  0  0  0  0  0  0  0  0  0  0  0
    2.8863    3.0743    2.0407 C   0  0  0  0  0  0  0  0  0  0  0  0
    3.2997    3.8714    2.6574 H   0  0  0  0  0  0  0  0  0  0  0  0
    2.4817    3.3393    0.7299 C   0  0  0  0  0  0  0  0  0  0  0  0
    2.5760    4.3455    0.3229 H   0  0  0  0  0  0  0  0  0  0  0  0
    1.9466    2.3189   -0.0627 C   0  0  0  0  0  0  0  0  0  0  0  0
    1.6213    2.5504   -1.0778 H   0  0  0  0  0  0  0  0  0  0  0  0
   -2.6427   -2.7124   -1.1793 S   0  0  0  0  0  0  0  0  0  0  0  0
   -2.5232   -2.7489   -2.9907 C   0  0  0  0  0  0  0  0  0  0  0  0
   -1.5112   -2.4897   -3.3167 H   0  0  0  0  0  0  0  0  0  0  0  0
   -3.2376   -2.0566   -3.4459 H   0  0  0  0  0  0  0  0  0  0  0  0
   -2.7533   -3.7630   -3.3382 H   0  0  0  0  0  0  0  0  0  0  0  0
  2  3  3  0  0  0  0
  1  2  1  0  0  0  0
  5  6  1  0  0  0  0
  5  7  1  0  0  0  0
  5  8  1  0  0  0  0
  4  5  1  0  0  0  0
  1  4  1  0  0  0  0
  9 20  1  0  0  0  0
 10 11  1  0  0  0  0
 11 12  1  0  0  0  0
 13 11  2  0  0  0  0
 14 13  1  0  0  0  0
 15 13  1  0  0  0  0
 16 15  1  0  0  0  0
 17 15  2  0  0  0  0
 18 17  1  0  0  0  0
 19 10  2  0  0  0  0
 20 19  1  0  0  0  0
  9 21  1  0  0  0  0
 10 21  1  0  0  0  0
 17 19  1  0  0  0  0
  1 21  1  0  0  0  0
 22 23  1  0  0  0  0
 23 24  1  0  0  0  0
 23 27  2  0  0  0  0
 24 26  2  0  0  0  0
 26 28  1  0  0  0  0
 25 27  1  0  0  0  0
 25 28  2  0  0  0  0
 29 26  1  0  0  0  0
 28 38  1  0  0  0  0
 29 33  2  0  0  0  0
 33 36  1  0  0  0  0
 36 38  2  0  0  0  0
 25 32  1  0  0  0  0
 27 30  1  0  0  0  0
 29 34  1  0  0  0  0
 31 38  1  0  0  0  0
 36 37  1  0  0  0  0
 33 35  1  0  0  0  0
  9 24  1  0  0  0  0
 40 39  1  0  0  0  0
 41 40  1  0  0  0  0
 42 40  2  0  0  0  0
 43 42  1  0  0  0  0
 44 42  1  0  0  0  0
 45 44  1  0  0  0  0
 46 44  2  0  0  0  0
 47 46  1  0  0  0  0
 48 39  2  0  0  0  0
 49 48  1  0  0  0  0
 46 48  1  0  0  0  0
 20 39  1  0  0  0  0
 51 50  1  0  0  0  0
 52 51  1  0  0  0  0
 53 51  2  0  0  0  0
 54 53  1  0  0  0  0
 55 53  1  0  0  0  0
 56 55  1  0  0  0  0
 57 55  2  0  0  0  0
 58 57  1  0  0  0  0
 59 50  2  0  0  0  0
 60 59  1  0  0  0  0
 57 59  1  0  0  0  0
 20 50  1  0  0  0  0
 62 63  1  0  0  0  0
 62 64  1  0  0  0  0
 62 65  1  0  0  0  0
 61 62  1  0  0  0  0
  1 61  1  0  0  0  0
M  END
> <PM6_ENERGY>
573.916

> <UID>
NCUQAMDZJFRLIY-VGRGKGGSNA-L

> <FITNESS>
1.14369

> <GCODE>
12243

> <GraphENC>
12243 72_1_0,79_64_1,93_15_1,85_64_1,250272_39_1,250278_30_1,250676_30_1, 72_0_79_0_SINGLE_Xlig:0_Xlig:1,72_2_93_3_SINGLE_scaff:0_MIsoindolylidene:1,72_1_85_0_SINGLE_Xlig:0_Xlig:1,93_0_250272_0_SINGLE_LIsoindolylideneSubNL:0_SubArM:1,93_1_250278_0_SINGLE_LIsoindolylideneSubCS:0_LIsoindolylideneSubCS:1,93_2_250676_0_SINGLE_LIsoindolylideneSubCS:0_LIsoindolylideneSubCS:1, SymmetricSet [symIds=[250278, 250676]] 

> <GraphJson>
{
  "graphId": 12243,
  "gVertices": [
    {
      "lstAPs": [
        {
          "id": 327073,
          "atomPositionNumber": 0,
          "atomPositionNumberInMol": 0,
          "apClass": {
            "rule": "Xlig",
            "subClass": 0,
            "bndTyp": "SINGLE"
          },
          "dirVec": {
            "x": -2.3339,
            "y": -0.0087,
            "z": 0.8172
          }
        },
        {
          "id": 327074,
          "atomPositionNumber": 0,
          "atomPositionNumberInMol": 0,
          "apClass": {
            "rule": "Xlig",
            "subClass": 0,
            "bndTyp": "SINGLE"
          },
          "dirVec": {
            "x": 2.336,
            "y": -5.0E-4,
            "z": 0.829
          }
        },
        {
          "id": 327075,
          "atomPositionNumber": 0,
          "atomPositionNumberInMol": 0,
          "apClass": {
            "rule": "scaff",
            "subClass": 0,
            "bndTyp": "SINGLE"
          },
          "dirVec": {
            "x": -0.0095,
            "y": 0.0046,
            "z": -1.7113
          }
        }
      ],
      "lstSymAPs": [
        {
          "symIds": [
            0,
            1
          ]
        }
      ],
      "mol": {
        "atoms": [
          {
            "elSymbol": "Pt",
            "p3d": {
              "x": -0.0098,
              "y": 0.0049,
              "z": 0.6289
            }
          },
          {
            "elSymbol": "C",
            "p3d": {
              "x": -6.0E-4,
              "y": 0.0016,
              "z": 2.5609
            }
          },
          {
            "elSymbol": "O",
            "p3d": {
              "x": 0.0025,
              "y": -0.0041,
              "z": 3.6974
            }
          },
          {
            "elSymbol": "Du",
            "p3d": {
              "x": -0.007,
              "y": 1.0013,
              "z": 0.6372
            }
          },
          {
            "elSymbol": "Du",
            "p3d": {
              "x": -0.0014,
              "y": 0.9902,
              "z": 2.5698
            }
          }
        ],
        "bonds": [
          {
            "atomIds": [
              1,
              2
            ],
            "bo": "TRIPLE"
          },
          {
            "atomIds": [
              0,
              1
            ],
            "bo": "SINGLE"
          },
          {
            "atomIds": [
              3,
              0
            ],
            "bo": "SINGLE"
          },
          {
            "atomIds": [
              4,
              1
            ],
            "bo": "SINGLE"
          }
        ]
      },
      "vertexId": 72,
      "buildingBlockId": 0,
      "buildingBlockType": "SCAFFOLD",
      "isRCV": false,
      "properties": {
        "ATTACHMENT_POINTS": "1#Xlig:0:SINGLE:-2.3339%-0.0087%0.8172,Xlig:0:SINGLE:2.3360%-0.0005%0.8290,scaff:0:SINGLE:-0.0095%0.0046%-1.7113 "
      },
      "uniquefyingPropertyKeys": [],
      "allowedMutationTypes": [
        "DELETE",
        "EXTEND",
        "CHANGEBRANCH",
        "CHANGELINK",
        "ADDLINK",
        "DELETELINK",
        "DELETECHAIN"
      ],
      "vertexType": "MolecularFragment"
    },
    {
      "lstAPs": [
        {
          "id": 327076,
          "atomPositionNumber": 0,
          "atomPositionNumberInMol": 5,
          "apClass": {
            "rule": "Xlig",
            "subClass": 1,
            "bndTyp": "SINGLE"
          },
          "dirVec": {
            "x": -0.102,
            "y": 0.0185,
            "z": -1.0265
          }
        }
      ],
      "lstSymAPs": [],
      "mol": {
        "atoms": [
          {
            "elSymbol": "S",
            "p3d": {
              "x": -0.3267,
              "y": 2.3403,
              "z": -1.0022
            }
          },
          {
            "elSymbol": "C",
            "p3d": {
              "x": -0.626,
              "y": 2.4866,
              "z": 0.7805
            }
          },
          {
            "elSymbol": "H",
            "p3d": {
              "x": 0.1766,
              "y": 3.089,
              "z": 1.2414
            }
          },
          {
            "elSymbol": "H",
            "p3d": {
              "x": -0.651,
              "y": 1.5065,
              "z": 1.2643
            }
          },
          {
            "elSymbol": "H",
            "p3d": {
              "x": -1.5658,
              "y": 2.981,
              "z": 0.9515
            }
          }
        ],
        "bonds": [
          {
            "atomIds": [
              1,
              2
            ],
            "bo": "SINGLE"
          },
          {
            "atomIds": [
              1,
              3
            ],
            "bo": "SINGLE"
          },
          {
            "atomIds": [
              1,
              4
            ],
            "bo": "SINGLE"
          },
          {
            "atomIds": [
              0,
              1
            ],
            "bo": "SINGLE"
          }
        ]
      },
      "vertexId": 79,
      "buildingBlockId": 63,
      "buildingBlockType": "FRAGMENT",
      "isRCV": false,
      "properties": {
        "ATTACHMENT_POINTS": "1#Xlig:1:SINGLE:-0.1020%0.0185%-1.0265 "
      },
      "uniquefyingPropertyKeys": [],
      "allowedMutationTypes": [
        "DELETE",
        "EXTEND",
        "CHANGEBRANCH",
        "CHANGELINK",
        "ADDLINK",
        "DELETELINK",
        "DELETECHAIN"
      ],
      "vertexType": "MolecularFragment"
    },
    {
      "lstAPs": [
        {
          "id": 327077,
          "atomPositionNumber": 0,
          "atomPositionNumberInMol": 10,
          "apClass": {
            "rule": "LIsoindolylideneSubNL",
            "subClass": 0,
            "bndTyp": "SINGLE"
          },
          "dirVec": {
            "x": 8.2611,
            "y": 13.2699,
            "z": 19.2517
          }
        },
        {
          "id": 327078,
          "atomPositionNumber": 11,
          "atomPositionNumberInMol": 21,
          "apClass": {
            "rule": "LIsoindolylideneSubCS",
            "subClass": 0,
            "bndTyp": "SINGLE"
          },
          "dirVec": {
            "x": 8.8004,
            "y": 11.8294,
            "z": 16.2112
          }
        },
        {
          "id": 327079,
          "atomPositionNumber": 11,
          "atomPositionNumberInMol": 21,
          "apClass": {
            "rule": "LIsoindolylideneSubCS",
            "subClass": 0,
            "bndTyp": "SINGLE"
          },
          "dirVec": {
            "x": 9.9911,
            "y": 10.7246,
            "z": 18.2628
          }
        },
        {
          "id": 327080,
          "atomPositionNumber": 12,
          "atomPositionNumberInMol": 22,
          "apClass": {
            "rule": "MIsoindolylidene",
            "subClass": 1,
            "bndTyp": "SINGLE"
          },
          "dirVec": {
            "x": 10.5893,
            "y": 15.7982,
            "z": 19.2952
          }
        }
      ],
      "lstSymAPs": [
        {
          "symIds": [
            1,
            2
          ]
        }
      ],
      "mol": {
        "atoms": [
          {
            "elSymbol": "N",
            "p3d": {
              "x": 9.4489,
              "y": 13.1799,
              "z": 18.2942
            }
          },
          {
            "elSymbol": "C",
            "p3d": {
              "x": 11.4201,
              "y": 13.7017,
              "z": 17.3025
            }
          },
          {
            "elSymbol": "C",
            "p3d": {
              "x": 12.5951,
              "y": 14.339,
              "z": 16.9164
            }
          },
          {
            "elSymbol": "H",
            "p3d": {
              "x": 12.8733,
              "y": 15.3,
              "z": 17.3622
            }
          },
          {
            "elSymbol": "C",
            "p3d": {
              "x": 13.4411,
              "y": 13.7204,
              "z": 15.9914
            }
          },
          {
            "elSymbol": "H",
            "p3d": {
              "x": 14.3384,
              "y": 14.2201,
              "z": 15.6587
            }
          },
          {
            "elSymbol": "C",
            "p3d": {
              "x": 13.0993,
              "y": 12.4808,
              "z": 15.4917
            }
          },
          {
            "elSymbol": "H",
            "p3d": {
              "x": 13.7585,
              "y": 11.989,
              "z": 14.7813
            }
          },
          {
            "elSymbol": "C",
            "p3d": {
              "x": 11.9512,
              "y": 11.8214,
              "z": 15.8884
            }
          },
          {
            "elSymbol": "H",
            "p3d": {
              "x": 11.7213,
              "y": 10.8277,
              "z": 15.5012
            }
          },
          {
            "elSymbol": "C",
            "p3d": {
              "x": 11.1202,
              "y": 12.434,
              "z": 16.8015
            }
          },
          {
            "elSymbol": "C",
            "p3d": {
              "x": 9.7825,
              "y": 11.9664,
              "z": 17.3844
            }
          },
          {
            "elSymbol": "C",
            "p3d": {
              "x": 10.4002,
              "y": 14.1128,
              "z": 18.2438
            }
          }
        ],
        "bonds": [
          {
            "atomIds": [
              0,
              11
            ],
            "bo": "SINGLE"
          },
          {
            "atomIds": [
              1,
              2
            ],
            "bo": "SINGLE"
          },
          {
            "atomIds": [
              2,
              3
            ],
            "bo": "SINGLE"
          },
          {
            "atomIds": [
              4,
              2
            ],
            "bo": "DOUBLE"
          },
          {
            "atomIds": [
              5,
              4
            ],
            "bo": "SINGLE"
          },
          {
            "atomIds": [
              6,
              4
            ],
            "bo": "SINGLE"
          },
          {
            "atomIds": [
              7,
              6
            ],
            "bo": "SINGLE"
          },
          {
            "atomIds": [
              8,
              6
            ],
            "bo": "DOUBLE"
          },
          {
            "atomIds": [
              9,
              8
            ],
            "bo": "SINGLE"
          },
          {
            "atomIds": [
              10,
              1
            ],
            "bo": "DOUBLE"
          },
          {
            "atomIds": [
              11,
              10
            ],
            "bo": "SINGLE"
          },
          {
            "atomIds": [
              0,
              12
            ],
            "bo": "SINGLE"
          },
          {
            "atomIds": [
              1,
              12
            ],
            "bo": "SINGLE"
          },
          {
            "atomIds": [
              8,
              10
            ],
            "bo": "SINGLE"
          }
        ]
      },
      "vertexId": 93,
      "buildingBlockId": 14,
      "buildingBlockType": "FRAGMENT",
      "isRCV": false,
      "properties": {
        "ATTACHMENT_POINTS": "1#LIsoindolylideneSubNL:0:SINGLE:8.2611%13.2699%19.2517 12#LIsoindolylideneSubCS:0:SINGLE:8.8004%11.8294%16.2112,LIsoindolylideneSubCS:0:SINGLE:9.9911%10.7246%18.2628 13#MIsoindolylidene:1:SINGLE:10.5893%15.7982%19.2952 "
      },
      "uniquefyingPropertyKeys": [],
      "allowedMutationTypes": [
        "DELETE",
        "EXTEND",
        "CHANGEBRANCH",
        "CHANGELINK",
        "ADDLINK",
        "DELETELINK",
        "DELETECHAIN"
      ],
      "vertexType": "MolecularFragment"
    },
    {
      "lstAPs": [
        {
          "id": 327081,
          "atomPositionNumber": 0,
          "atomPositionNumberInMol": 62,
          "apClass": {
            "rule": "Xlig",
            "subClass": 1,
            "bndTyp": "SINGLE"
          },
          "dirVec": {
            "x": -0.102,
            "y": 0.0185,
            "z": -1.0265
          }
        }
      ],
      "lstSymAPs": [],
      "mol": {
        "atoms": [
          {
            "elSymbol": "S",
            "p3d": {
              "x": -0.3267,
              "y": 2.3403,
              "z": -1.0022
            }
          },
          {
            "elSymbol": "C",
            "p3d": {
              "x": -0.626,
              "y": 2.4866,
              "z": 0.7805
            }
          },
          {
            "elSymbol": "H",
            "p3d": {
              "x": 0.1766,
              "y": 3.089,
              "z": 1.2414
            }
          },
          {
            "elSymbol": "H",
            "p3d": {
              "x": -0.651,
              "y": 1.5065,
              "z": 1.2643
            }
          },
          {
            "elSymbol": "H",
            "p3d": {
              "x": -1.5658,
              "y": 2.981,
              "z": 0.9515
            }
          }
        ],
        "bonds": [
          {
            "atomIds": [
              1,
              2
            ],
            "bo": "SINGLE"
          },
          {
            "atomIds": [
              1,
              3
            ],
            "bo": "SINGLE"
          },
          {
            "atomIds": [
              1,
              4
            ],
            "bo": "SINGLE"
          },
          {
            "atomIds": [
              0,
              1
            ],
            "bo": "SINGLE"
          }
        ]
      },
      "vertexId": 85,
      "buildingBlockId": 63,
      "buildingBlockType": "FRAGMENT",
      "isRCV": false,
      "properties": {
        "ATTACHMENT_POINTS": "1#Xlig:1:SINGLE:-0.1020%0.0185%-1.0265 "
      },
      "uniquefyingPropertyKeys": [],
      "allowedMutationTypes": [
        "DELETE",
        "EXTEND",
        "CHANGEBRANCH",
        "CHANGELINK",
        "ADDLINK",
        "DELETELINK",
        "DELETECHAIN"
      ],
      "vertexType": "MolecularFragment"
    },
    {
      "lstAPs": [
        {
          "id": 327118,
          "atomPositionNumber": 2,
          "atomPositionNumberInMol": 25,
          "apClass": {
            "rule": "SubArM",
            "subClass": 1,
            "bndTyp": "SINGLE"
          },
          "dirVec": {
            "x": 0.2839,
            "y": 0.3907,
            "z": -0.6271
          }
        }
      ],
      "lstSymAPs": [],
      "mol": {
        "atoms": [
          {
            "elSymbol": "H",
            "p3d": {
              "x": 1.8079,
              "y": 2.6521,
              "z": -0.6457
            }
          },
          {
            "elSymbol": "C",
            "p3d": {
              "x": 2.3292,
              "y": 1.8028,
              "z": -1.1346
            }
          },
          {
            "elSymbol": "C",
            "p3d": {
              "x": 1.6928,
              "y": 0.5701,
              "z": -1.2214
            }
          },
          {
            "elSymbol": "C",
            "p3d": {
              "x": 4.26,
              "y": 0.9161,
              "z": -2.2564
            }
          },
          {
            "elSymbol": "C",
            "p3d": {
              "x": 2.3547,
              "y": -0.5116,
              "z": -1.8205
            }
          },
          {
            "elSymbol": "C",
            "p3d": {
              "x": 3.6118,
              "y": 1.9867,
              "z": -1.654
            }
          },
          {
            "elSymbol": "C",
            "p3d": {
              "x": 3.6519,
              "y": -0.333,
              "z": -2.339
            }
          },
          {
            "elSymbol": "C",
            "p3d": {
              "x": 1.7318,
              "y": -1.7781,
              "z": -1.8989
            }
          },
          {
            "elSymbol": "H",
            "p3d": {
              "x": 4.0936,
              "y": 2.9609,
              "z": -1.5808
            }
          },
          {
            "elSymbol": "H",
            "p3d": {
              "x": 5.3077,
              "y": -1.3005,
              "z": -3.3639
            }
          },
          {
            "elSymbol": "H",
            "p3d": {
              "x": 5.2705,
              "y": 1.0583,
              "z": -2.6578
            }
          },
          {
            "elSymbol": "C",
            "p3d": {
              "x": 2.3998,
              "y": -2.8526,
              "z": -2.5007
            }
          },
          {
            "elSymbol": "H",
            "p3d": {
              "x": 0.724,
              "y": -1.9306,
              "z": -1.4908
            }
          },
          {
            "elSymbol": "H",
            "p3d": {
              "x": 1.9155,
              "y": -3.8304,
              "z": -2.576
            }
          },
          {
            "elSymbol": "C",
            "p3d": {
              "x": 3.684,
              "y": -2.6697,
              "z": -3.0355
            }
          },
          {
            "elSymbol": "H",
            "p3d": {
              "x": 4.2028,
              "y": -3.5195,
              "z": -3.4955
            }
          },
          {
            "elSymbol": "C",
            "p3d": {
              "x": 4.3092,
              "y": -1.4197,
              "z": -2.9387
            }
          }
        ],
        "bonds": [
          {
            "atomIds": [
              0,
              1
            ],
            "bo": "SINGLE"
          },
          {
            "atomIds": [
              1,
              2
            ],
            "bo": "SINGLE"
          },
          {
            "atomIds": [
              1,
              5
            ],
            "bo": "DOUBLE"
          },
          {
            "atomIds": [
              2,
              4
            ],
            "bo": "DOUBLE"
          },
          {
            "atomIds": [
              4,
              6
            ],
            "bo": "SINGLE"
          },
          {
            "atomIds": [
              3,
              5
            ],
            "bo": "SINGLE"
          },
          {
            "atomIds": [
              3,
              6
            ],
            "bo": "DOUBLE"
          },
          {
            "atomIds": [
              7,
              4
            ],
            "bo": "SINGLE"
          },
          {
            "atomIds": [
              6,
              16
            ],
            "bo": "SINGLE"
          },
          {
            "atomIds": [
              7,
              11
            ],
            "bo": "DOUBLE"
          },
          {
            "atomIds": [
              11,
              14
            ],
            "bo": "SINGLE"
          },
          {
            "atomIds": [
              14,
              16
            ],
            "bo": "DOUBLE"
          },
          {
            "atomIds": [
              3,
              10
            ],
            "bo": "SINGLE"
          },
          {
            "atomIds": [
              5,
              8
            ],
            "bo": "SINGLE"
          },
          {
            "atomIds": [
              7,
              12
            ],
            "bo": "SINGLE"
          },
          {
            "atomIds": [
              9,
              16
            ],
            "bo": "SINGLE"
          },
          {
            "atomIds": [
              14,
              15
            ],
            "bo": "SINGLE"
          },
          {
            "atomIds": [
              11,
              13
            ],
            "bo": "SINGLE"
          }
        ]
      },
      "vertexId": 250272,
      "buildingBlockId": 38,
      "buildingBlockType": "FRAGMENT",
      "isRCV": false,
      "properties": {
        "ATTACHMENT_POINTS": "3#SubArM:1:SINGLE:0.2839%0.3907%-0.6271 "
      },
      "uniquefyingPropertyKeys": [],
      "allowedMutationTypes": [
        "DELETE",
        "EXTEND",
        "CHANGEBRANCH",
        "CHANGELINK",
        "ADDLINK",
        "DELETELINK",
        "DELETECHAIN"
      ],
      "vertexType": "MolecularFragment"
    },
    {
      "lstAPs": [
        {
          "id": 327119,
          "atomPositionNumber": 0,
          "atomPositionNumberInMol": 40,
          "apClass": {
            "rule": "LIsoindolylideneSubCS",
            "subClass": 1,
            "bndTyp": "SINGLE"
          },
          "dirVec": {
            "x": 5.5795,
            "y": 5.9633,
            "z": -0.239
          }
        }
      ],
      "lstSymAPs": [],
      "mol": {
        "atoms": [
          {
            "elSymbol": "C",
            "p3d": {
              "x": 6.4615,
              "y": 7.1721,
              "z": 0.1839
            }
          },
          {
            "elSymbol": "C",
            "p3d": {
              "x": 7.081,
              "y": 7.1629,
              "z": 1.4436
            }
          },
          {
            "elSymbol": "H",
            "p3d": {
              "x": 7.0505,
              "y": 6.276,
              "z": 2.048
            }
          },
          {
            "elSymbol": "C",
            "p3d": {
              "x": 7.7838,
              "y": 8.284,
              "z": 1.8843
            }
          },
          {
            "elSymbol": "H",
            "p3d": {
              "x": 8.252,
              "y": 8.2646,
              "z": 2.8494
            }
          },
          {
            "elSymbol": "C",
            "p3d": {
              "x": 7.8546,
              "y": 9.4183,
              "z": 1.0991
            }
          },
          {
            "elSymbol": "H",
            "p3d": {
              "x": 8.4264,
              "y": 10.2812,
              "z": 1.4367
            }
          },
          {
            "elSymbol": "C",
            "p3d": {
              "x": 7.1986,
              "y": 9.4546,
              "z": -0.132
            }
          },
          {
            "elSymbol": "H",
            "p3d": {
              "x": 7.2285,
              "y": 10.3561,
              "z": -0.7414
            }
          },
          {
            "elSymbol": "C",
            "p3d": {
              "x": 6.4815,
              "y": 8.3462,
              "z": -0.5635
            }
          },
          {
            "elSymbol": "H",
            "p3d": {
              "x": 5.9344,
              "y": 8.3796,
              "z": -1.5229
            }
          }
        ],
        "bonds": [
          {
            "atomIds": [
              1,
              0
            ],
            "bo": "SINGLE"
          },
          {
            "atomIds": [
              2,
              1
            ],
            "bo": "SINGLE"
          },
          {
            "atomIds": [
              3,
              1
            ],
            "bo": "DOUBLE"
          },
          {
            "atomIds": [
              4,
              3
            ],
            "bo": "SINGLE"
          },
          {
            "atomIds": [
              5,
              3
            ],
            "bo": "SINGLE"
          },
          {
            "atomIds": [
              6,
              5
            ],
            "bo": "SINGLE"
          },
          {
            "atomIds": [
              7,
              5
            ],
            "bo": "DOUBLE"
          },
          {
            "atomIds": [
              8,
              7
            ],
            "bo": "SINGLE"
          },
          {
            "atomIds": [
              9,
              0
            ],
            "bo": "DOUBLE"
          },
          {
            "atomIds": [
              10,
              9
            ],
            "bo": "SINGLE"
          },
          {
            "atomIds": [
              7,
              9
            ],
            "bo": "SINGLE"
          }
        ]
      },
      "vertexId": 250278,
      "buildingBlockId": 29,
      "buildingBlockType": "FRAGMENT",
      "isRCV": false,
      "properties": {
        "ATTACHMENT_POINTS": "1#LIsoindolylideneSubCS:1:SINGLE:5.5795%5.9633%-0.2390 "
      },
      "uniquefyingPropertyKeys": [],
      "allowedMutationTypes": [
        "DELETE",
        "EXTEND",
        "CHANGEBRANCH",
        "CHANGELINK",
        "ADDLINK",
        "DELETELINK",
        "DELETECHAIN"
      ],
      "vertexType": "MolecularFragment"
    },
    {
      "lstAPs": [
        {
          "id": 327120,
          "atomPositionNumber": 0,
          "atomPositionNumberInMol": 51,
          "apClass": {
            "rule": "LIsoindolylideneSubCS",
            "subClass": 1,
            "bndTyp": "SINGLE"
          },
          "dirVec": {
            "x": 5.5795,
            "y": 5.9633,
            "z": -0.239
          }
        }
      ],
      "lstSymAPs": [],
      "mol": {
        "atoms": [
          {
            "elSymbol": "C",
            "p3d": {
              "x": 6.4615,
              "y": 7.1721,
              "z": 0.1839
            }
          },
          {
            "elSymbol": "C",
            "p3d": {
              "x": 7.081,
              "y": 7.1629,
              "z": 1.4436
            }
          },
          {
            "elSymbol": "H",
            "p3d": {
              "x": 7.0505,
              "y": 6.276,
              "z": 2.048
            }
          },
          {
            "elSymbol": "C",
            "p3d": {
              "x": 7.7838,
              "y": 8.284,
              "z": 1.8843
            }
          },
          {
            "elSymbol": "H",
            "p3d": {
              "x": 8.252,
              "y": 8.2646,
              "z": 2.8494
            }
          },
          {
            "elSymbol": "C",
            "p3d": {
              "x": 7.8546,
              "y": 9.4183,
              "z": 1.0991
            }
          },
          {
            "elSymbol": "H",
            "p3d": {
              "x": 8.4264,
              "y": 10.2812,
              "z": 1.4367
            }
          },
          {
            "elSymbol": "C",
            "p3d": {
              "x": 7.1986,
              "y": 9.4546,
              "z": -0.132
            }
          },
          {
            "elSymbol": "H",
            "p3d": {
              "x": 7.2285,
              "y": 10.3561,
              "z": -0.7414
            }
          },
          {
            "elSymbol": "C",
            "p3d": {
              "x": 6.4815,
              "y": 8.3462,
              "z": -0.5635
            }
          },
          {
            "elSymbol": "H",
            "p3d": {
              "x": 5.9344,
              "y": 8.3796,
              "z": -1.5229
            }
          }
        ],
        "bonds": [
          {
            "atomIds": [
              1,
              0
            ],
            "bo": "SINGLE"
          },
          {
            "atomIds": [
              2,
              1
            ],
            "bo": "SINGLE"
          },
          {
            "atomIds": [
              3,
              1
            ],
            "bo": "DOUBLE"
          },
          {
            "atomIds": [
              4,
              3
            ],
            "bo": "SINGLE"
          },
          {
            "atomIds": [
              5,
              3
            ],
            "bo": "SINGLE"
          },
          {
            "atomIds": [
              6,
              5
            ],
            "bo": "SINGLE"
          },
          {
            "atomIds": [
              7,
              5
            ],
            "bo": "DOUBLE"
          },
          {
            "atomIds": [
              8,
              7
            ],
            "bo": "SINGLE"
          },
          {
            "atomIds": [
              9,
              0
            ],
            "bo": "DOUBLE"
          },
          {
            "atomIds": [
              10,
              9
            ],
            "bo": "SINGLE"
          },
          {
            "atomIds": [
              7,
              9
            ],
            "bo": "SINGLE"
          }
        ]
      },
      "vertexId": 250676,
      "buildingBlockId": 29,
      "buildingBlockType": "FRAGMENT",
      "isRCV": false,
      "properties": {
        "ATTACHMENT_POINTS": "1#LIsoindolylideneSubCS:1:SINGLE:5.5795%5.9633%-0.2390 "
      },
      "uniquefyingPropertyKeys": [],
      "allowedMutationTypes": [
        "DELETE",
        "EXTEND",
        "CHANGEBRANCH",
        "CHANGELINK",
        "ADDLINK",
        "DELETELINK",
        "DELETECHAIN"
      ],
      "vertexType": "MolecularFragment"
    }
  ],
  "gEdges": [
    {
      "srcAPID": 327073,
      "trgAPID": 327076,
      "bondType": "SINGLE"
    },
    {
      "srcAPID": 327075,
      "trgAPID": 327080,
      "bondType": "SINGLE"
    },
    {
      "srcAPID": 327074,
      "trgAPID": 327081,
      "bondType": "SINGLE"
    },
    {
      "srcAPID": 327077,
      "trgAPID": 327118,
      "bondType": "SINGLE"
    },
    {
      "srcAPID": 327078,
      "trgAPID": 327119,
      "bondType": "SINGLE"
    },
    {
      "srcAPID": 327079,
      "trgAPID": 327120,
      "bondType": "SINGLE"
    }
  ],
  "gRings": [],
  "symVertices": [
    {
      "symIds": [
        250278,
        250676
      ]
    }
  ]
}

> <SMILES>
[Pt](C#O)(SC([H])([H])[H])([C]1N(C(C2=C1C([H])=C([H])C([H])=C2[H])(C=3C([H])=C([H])C([H])=C([H])C3[H])C=4C([H])=C([H])C([H])=C([H])C4[H])C=5C([H])=C(C(=C6C5C(=C(C(=C6[H])[H])[H])[H])[H])[H])SC([H])([H])[H]

$$$$
