M00009011
  CDK     04222211563D

 56 60  0  0  0  0  0  0  0  0999 V2000
   -0.0256   -0.0257    3.4956 Pt  0  0  0  0  0  0  0  0  0  0  0  0
   -0.0423   -0.0391    5.4097 C   0  0  0  0  0  0  0  0  0  0  0  0
   -0.0525   -0.0474    6.5548 O   0  0  0  0  0  0  0  0  0  0  0  0
   -0.6504   -1.9224    3.4503 C   0  0  0  0  0  0  0  0  0  0  0  0
   -1.0102   -3.0190    3.4055 N   0  0  0  0  0  0  0  0  0  0  0  0
   -0.0087   -0.0117    1.4736 C   0  0  1  0  0  0  0  0  0  0  0  0
   -1.1206   -0.0160    0.6469 N   0  0  0  0  0  0  0  0  0  0  0  0
   -0.6920    0.0073   -0.7101 C   0  0  0  0  0  0  0  0  0  0  0  0
    0.7030    0.0020   -0.7009 C   0  0  0  0  0  0  0  0  0  0  0  0
    1.1142    0.0043    0.6618 N   0  0  0  0  0  0  0  0  0  0  0  0
   -2.4804   -0.0462    1.1436 C   0  0  0  0  0  0  0  0  0  0  0  0
   -5.0764   -0.1046    2.1403 C   0  0  0  0  0  0  0  0  0  0  0  0
   -2.7888    0.6930    2.3000 C   0  0  0  0  0  0  0  0  0  0  0  0
   -3.4480   -0.8259    0.4922 C   0  0  0  0  0  0  0  0  0  0  0  0
   -4.7497   -0.8447    0.9993 C   0  0  0  0  0  0  0  0  0  0  0  0
   -4.0977    0.6575    2.7877 C   0  0  0  0  0  0  0  0  0  0  0  0
   -2.0252    1.2952    2.8117 H   0  0  0  0  0  0  0  0  0  0  0  0
   -3.1917   -1.4187   -0.3873 H   0  0  0  0  0  0  0  0  0  0  0  0
   -5.5107   -1.4497    0.5046 H   0  0  0  0  0  0  0  0  0  0  0  0
   -4.3538    1.2274    3.6822 H   0  0  0  0  0  0  0  0  0  0  0  0
   -6.0937   -0.1279    2.5311 H   0  0  0  0  0  0  0  0  0  0  0  0
    1.6156   -0.0280   -1.8439 C   0  0  0  0  0  0  0  0  0  0  0  0
    1.5329    0.9757   -2.8226 C   0  0  0  0  0  0  0  0  0  0  0  0
    0.8017    1.7784   -2.7208 H   0  0  0  0  0  0  0  0  0  0  0  0
    2.3875    0.9374   -3.9269 C   0  0  0  0  0  0  0  0  0  0  0  0
    2.3251    1.7158   -4.6872 H   0  0  0  0  0  0  0  0  0  0  0  0
    3.3202   -0.0965   -4.0588 C   0  0  0  0  0  0  0  0  0  0  0  0
    3.9851   -0.1230   -4.9217 H   0  0  0  0  0  0  0  0  0  0  0  0
    3.3996   -1.0974   -3.0847 C   0  0  0  0  0  0  0  0  0  0  0  0
    4.1254   -1.9036   -3.1897 H   0  0  0  0  0  0  0  0  0  0  0  0
    2.5500   -1.0683   -1.9767 C   0  0  0  0  0  0  0  0  0  0  0  0
    2.6114   -1.8491   -1.2180 H   0  0  0  0  0  0  0  0  0  0  0  0
    2.4675    0.0257    1.1766 C   0  0  0  0  0  0  0  0  0  0  0  0
    5.0501    0.0678    2.2092 C   0  0  0  0  0  0  0  0  0  0  0  0
    2.7570   -0.7202    2.3336 C   0  0  0  0  0  0  0  0  0  0  0  0
    3.4477    0.8040    0.5425 C   0  0  0  0  0  0  0  0  0  0  0  0
    4.7425    0.8140    1.0670 C   0  0  0  0  0  0  0  0  0  0  0  0
    4.0591   -0.6922    2.8397 C   0  0  0  0  0  0  0  0  0  0  0  0
    1.9843   -1.3220    2.8320 H   0  0  0  0  0  0  0  0  0  0  0  0
    3.2067    1.4024   -0.3375 H   0  0  0  0  0  0  0  0  0  0  0  0
    5.5130    1.4173    0.5852 H   0  0  0  0  0  0  0  0  0  0  0  0
    4.2999   -1.2666    3.7356 H   0  0  0  0  0  0  0  0  0  0  0  0
    6.0620    0.0849    2.6141 H   0  0  0  0  0  0  0  0  0  0  0  0
   -1.5903    0.0565   -1.8636 C   0  0  0  0  0  0  0  0  0  0  0  0
   -1.4861   -0.9225   -2.8651 C   0  0  0  0  0  0  0  0  0  0  0  0
   -0.7488   -1.7209   -2.7733 H   0  0  0  0  0  0  0  0  0  0  0  0
   -2.3270   -0.8652   -3.9790 C   0  0  0  0  0  0  0  0  0  0  0  0
   -2.2475   -1.6240   -4.7571 H   0  0  0  0  0  0  0  0  0  0  0  0
   -3.2677    0.1630   -4.0979 C   0  0  0  0  0  0  0  0  0  0  0  0
   -3.9221    0.2042   -4.9682 H   0  0  0  0  0  0  0  0  0  0  0  0
   -3.3686    1.1394   -3.1011 C   0  0  0  0  0  0  0  0  0  0  0  0
   -4.1005    1.9414   -3.1960 H   0  0  0  0  0  0  0  0  0  0  0  0
   -2.5328    1.0911   -1.9834 C   0  0  0  0  0  0  0  0  0  0  0  0
   -2.6112    1.8528   -1.2071 H   0  0  0  0  0  0  0  0  0  0  0  0
    0.5996    1.8715    3.4877 C   0  0  0  0  0  0  0  0  0  0  0  0
    0.9599    2.9685    3.4647 N   0  0  0  0  0  0  0  0  0  0  0  0
  2  3  3  0  0  0  0
  1  2  1  0  0  0  0
  4  5  3  0  0  0  0
  1  4  1  0  0  0  0
  7  6  1  0  0  0  0
  8  7  1  0  0  0  0
  9  8  2  0  0  0  0
  9 10  1  0  0  0  0
 10  6  1  0  0  0  0
  1  6  1  0  0  0  0
 11 14  1  0  0  0  0
 14 15  2  0  0  0  0
 12 15  1  0  0  0  0
 12 16  2  0  0  0  0
 13 16  1  0  0  0  0
 11 13  2  0  0  0  0
 15 19  1  0  0  0  0
 16 20  1  0  0  0  0
 12 21  1  0  0  0  0
 13 17  1  0  0  0  0
 14 18  1  0  0  0  0
  7 11  1  0  0  0  0
 23 22  1  0  0  0  0
 24 23  1  0  0  0  0
 25 23  2  0  0  0  0
 26 25  1  0  0  0  0
 27 25  1  0  0  0  0
 28 27  1  0  0  0  0
 29 27  2  0  0  0  0
 30 29  1  0  0  0  0
 31 22  2  0  0  0  0
 32 31  1  0  0  0  0
 29 31  1  0  0  0  0
  9 22  1  0  0  0  0
 33 36  1  0  0  0  0
 36 37  2  0  0  0  0
 34 37  1  0  0  0  0
 34 38  2  0  0  0  0
 35 38  1  0  0  0  0
 33 35  2  0  0  0  0
 37 41  1  0  0  0  0
 38 42  1  0  0  0  0
 34 43  1  0  0  0  0
 35 39  1  0  0  0  0
 36 40  1  0  0  0  0
 10 33  1  0  0  0  0
 45 44  1  0  0  0  0
 46 45  1  0  0  0  0
 47 45  2  0  0  0  0
 48 47  1  0  0  0  0
 49 47  1  0  0  0  0
 50 49  1  0  0  0  0
 51 49  2  0  0  0  0
 52 51  1  0  0  0  0
 53 44  2  0  0  0  0
 54 53  1  0  0  0  0
 51 53  1  0  0  0  0
  8 44  1  0  0  0  0
 55 56  3  0  0  0  0
  1 55  1  0  0  0  0
M  END
> <PM6_ENERGY>
769.418

> <UID>
JFGMNCSILGCRFR-RKPCTXQHNA-N

> <FITNESS>
1.14518

> <GCODE>
9956

> <GraphENC>
9956 72_1_0,81_66_1,97_19_1,87_66_1,202775_36_1,203279_22_1,203278_36_1,202784_22_1, 72_0_81_0_SINGLE_Xlig:0_Xlig:1,72_2_97_0_SINGLE_scaff:0_MImidazolylidene:1,72_1_87_0_SINGLE_Xlig:0_Xlig:1,97_1_202775_0_SINGLE_LImidazolylideneSubNL:0_SubArS:1,97_3_203279_0_SINGLE_LImidazolylideneSubCS:0_LImidazolylideneSubCS:1,97_4_203278_0_SINGLE_LImidazolylideneSubNL:0_SubArS:1,97_2_202784_0_SINGLE_LImidazolylideneSubCS:0_LImidazolylideneSubCS:1, SymmetricSet [symIds=[202775, 203278]] SymmetricSet [symIds=[203279, 202784]] 

> <GraphJson>
{
  "graphId": 9956,
  "gVertices": [
    {
      "lstAPs": [
        {
          "id": 265446,
          "atomPositionNumber": 0,
          "atomPositionNumberInMol": 0,
          "apClass": {
            "rule": "Xlig",
            "subClass": 0,
            "bndTyp": "SINGLE"
          },
          "dirVec": {
            "x": -2.3339,
            "y": -0.0087,
            "z": 0.8172
          }
        },
        {
          "id": 265447,
          "atomPositionNumber": 0,
          "atomPositionNumberInMol": 0,
          "apClass": {
            "rule": "Xlig",
            "subClass": 0,
            "bndTyp": "SINGLE"
          },
          "dirVec": {
            "x": 2.336,
            "y": -5.0E-4,
            "z": 0.829
          }
        },
        {
          "id": 265448,
          "atomPositionNumber": 0,
          "atomPositionNumberInMol": 0,
          "apClass": {
            "rule": "scaff",
            "subClass": 0,
            "bndTyp": "SINGLE"
          },
          "dirVec": {
            "x": -0.0095,
            "y": 0.0046,
            "z": -1.7113
          }
        }
      ],
      "lstSymAPs": [
        {
          "symIds": [
            0,
            1
          ]
        }
      ],
      "mol": {
        "atoms": [
          {
            "elSymbol": "Pt",
            "p3d": {
              "x": -0.0098,
              "y": 0.0049,
              "z": 0.6289
            }
          },
          {
            "elSymbol": "C",
            "p3d": {
              "x": -6.0E-4,
              "y": 0.0016,
              "z": 2.5609
            }
          },
          {
            "elSymbol": "O",
            "p3d": {
              "x": 0.0025,
              "y": -0.0041,
              "z": 3.6974
            }
          },
          {
            "elSymbol": "Du",
            "p3d": {
              "x": -0.007,
              "y": 1.0013,
              "z": 0.6372
            }
          },
          {
            "elSymbol": "Du",
            "p3d": {
              "x": -0.0014,
              "y": 0.9902,
              "z": 2.5698
            }
          }
        ],
        "bonds": [
          {
            "atomIds": [
              1,
              2
            ],
            "bo": "TRIPLE"
          },
          {
            "atomIds": [
              0,
              1
            ],
            "bo": "SINGLE"
          },
          {
            "atomIds": [
              3,
              0
            ],
            "bo": "SINGLE"
          },
          {
            "atomIds": [
              4,
              1
            ],
            "bo": "SINGLE"
          }
        ]
      },
      "vertexId": 72,
      "buildingBlockId": 0,
      "buildingBlockType": "SCAFFOLD",
      "isRCV": false,
      "properties": {
        "ATTACHMENT_POINTS": "1#Xlig:0:SINGLE:-2.3339%-0.0087%0.8172,Xlig:0:SINGLE:2.3360%-0.0005%0.8290,scaff:0:SINGLE:-0.0095%0.0046%-1.7113 "
      },
      "uniquefyingPropertyKeys": [],
      "allowedMutationTypes": [
        "DELETE",
        "EXTEND",
        "CHANGEBRANCH",
        "CHANGELINK",
        "ADDLINK",
        "DELETELINK",
        "DELETECHAIN"
      ],
      "vertexType": "MolecularFragment"
    },
    {
      "lstAPs": [
        {
          "id": 265449,
          "atomPositionNumber": 0,
          "atomPositionNumberInMol": 5,
          "apClass": {
            "rule": "Xlig",
            "subClass": 1,
            "bndTyp": "SINGLE"
          },
          "dirVec": {
            "x": 0.0192,
            "y": -0.0048,
            "z": -0.5645
          }
        }
      ],
      "lstSymAPs": [],
      "mol": {
        "atoms": [
          {
            "elSymbol": "C",
            "p3d": {
              "x": -1.967,
              "y": -0.0075,
              "z": -0.4937
            }
          },
          {
            "elSymbol": "N",
            "p3d": {
              "x": -3.1263,
              "y": -0.0054,
              "z": -0.4354
            }
          },
          {
            "elSymbol": "Du",
            "p3d": {
              "x": -1.9744,
              "y": 0.9926,
              "z": -0.5036
            }
          }
        ],
        "bonds": [
          {
            "atomIds": [
              0,
              1
            ],
            "bo": "TRIPLE"
          },
          {
            "atomIds": [
              2,
              0
            ],
            "bo": "SINGLE"
          }
        ]
      },
      "vertexId": 81,
      "buildingBlockId": 65,
      "buildingBlockType": "FRAGMENT",
      "isRCV": false,
      "properties": {
        "ATTACHMENT_POINTS": "1#Xlig:1:SINGLE:0.0192%-0.0048%-0.5645 "
      },
      "uniquefyingPropertyKeys": [],
      "allowedMutationTypes": [
        "DELETE",
        "EXTEND",
        "CHANGEBRANCH",
        "CHANGELINK",
        "ADDLINK",
        "DELETELINK",
        "DELETECHAIN"
      ],
      "vertexType": "MolecularFragment"
    },
    {
      "lstAPs": [
        {
          "id": 265450,
          "atomPositionNumber": 0,
          "atomPositionNumberInMol": 8,
          "apClass": {
            "rule": "MImidazolylidene",
            "subClass": 1,
            "bndTyp": "SINGLE"
          },
          "dirVec": {
            "x": 6.9056,
            "y": 0.097,
            "z": 12.1004
          }
        },
        {
          "id": 265451,
          "atomPositionNumber": 1,
          "atomPositionNumberInMol": 9,
          "apClass": {
            "rule": "LImidazolylideneSubNL",
            "subClass": 0,
            "bndTyp": "SINGLE"
          },
          "dirVec": {
            "x": 4.1123,
            "y": 2.1609,
            "z": 11.1322
          }
        },
        {
          "id": 265452,
          "atomPositionNumber": 2,
          "atomPositionNumberInMol": 10,
          "apClass": {
            "rule": "LImidazolylideneSubCS",
            "subClass": 0,
            "bndTyp": "SINGLE"
          },
          "dirVec": {
            "x": 2.203,
            "y": 3.3086,
            "z": 13.3341
          }
        },
        {
          "id": 265453,
          "atomPositionNumber": 3,
          "atomPositionNumberInMol": 11,
          "apClass": {
            "rule": "LImidazolylideneSubCS",
            "subClass": 0,
            "bndTyp": "SINGLE"
          },
          "dirVec": {
            "x": 3.4334,
            "y": 2.3948,
            "z": 16.1586
          }
        },
        {
          "id": 265454,
          "atomPositionNumber": 4,
          "atomPositionNumberInMol": 12,
          "apClass": {
            "rule": "LImidazolylideneSubNL",
            "subClass": 0,
            "bndTyp": "SINGLE"
          },
          "dirVec": {
            "x": 5.9067,
            "y": 0.5846,
            "z": 15.5163
          }
        }
      ],
      "lstSymAPs": [
        {
          "symIds": [
            1,
            4
          ]
        },
        {
          "symIds": [
            2,
            3
          ]
        }
      ],
      "mol": {
        "atoms": [
          {
            "elSymbol": "C",
            "p3d": {
              "x": 5.2812,
              "y": 1.2018,
              "z": 13.1656
            }
          },
          {
            "elSymbol": "N",
            "p3d": {
              "x": 4.2675,
              "y": 1.9426,
              "z": 12.5989
            }
          },
          {
            "elSymbol": "C",
            "p3d": {
              "x": 3.4407,
              "y": 2.4761,
              "z": 13.582
            }
          },
          {
            "elSymbol": "C",
            "p3d": {
              "x": 3.9357,
              "y": 2.0507,
              "z": 14.777
            }
          },
          {
            "elSymbol": "N",
            "p3d": {
              "x": 5.0694,
              "y": 1.2634,
              "z": 14.5115
            }
          }
        ],
        "bonds": [
          {
            "atomIds": [
              1,
              0
            ],
            "bo": "SINGLE"
          },
          {
            "atomIds": [
              2,
              1
            ],
            "bo": "SINGLE"
          },
          {
            "atomIds": [
              3,
              2
            ],
            "bo": "DOUBLE"
          },
          {
            "atomIds": [
              3,
              4
            ],
            "bo": "SINGLE"
          },
          {
            "atomIds": [
              4,
              0
            ],
            "bo": "SINGLE"
          }
        ]
      },
      "vertexId": 97,
      "buildingBlockId": 18,
      "buildingBlockType": "FRAGMENT",
      "isRCV": false,
      "properties": {
        "ATTACHMENT_POINTS": "1#MImidazolylidene:1:SINGLE:6.9056%0.0970%12.1004 2#LImidazolylideneSubNL:0:SINGLE:4.1123%2.1609%11.1322 3#LImidazolylideneSubCS:0:SINGLE:2.2030%3.3086%13.3341 4#LImidazolylideneSubCS:0:SINGLE:3.4334%2.3948%16.1586 5#LImidazolylideneSubNL:0:SINGLE:5.9067%0.5846%15.5163 "
      },
      "uniquefyingPropertyKeys": [],
      "allowedMutationTypes": [
        "DELETE",
        "EXTEND",
        "CHANGEBRANCH",
        "CHANGELINK",
        "ADDLINK",
        "DELETELINK",
        "DELETECHAIN"
      ],
      "vertexType": "MolecularFragment"
    },
    {
      "lstAPs": [
        {
          "id": 265455,
          "atomPositionNumber": 0,
          "atomPositionNumberInMol": 57,
          "apClass": {
            "rule": "Xlig",
            "subClass": 1,
            "bndTyp": "SINGLE"
          },
          "dirVec": {
            "x": 0.0192,
            "y": -0.0048,
            "z": -0.5645
          }
        }
      ],
      "lstSymAPs": [],
      "mol": {
        "atoms": [
          {
            "elSymbol": "C",
            "p3d": {
              "x": -1.967,
              "y": -0.0075,
              "z": -0.4937
            }
          },
          {
            "elSymbol": "N",
            "p3d": {
              "x": -3.1263,
              "y": -0.0054,
              "z": -0.4354
            }
          },
          {
            "elSymbol": "Du",
            "p3d": {
              "x": -1.9744,
              "y": 0.9926,
              "z": -0.5036
            }
          }
        ],
        "bonds": [
          {
            "atomIds": [
              0,
              1
            ],
            "bo": "TRIPLE"
          },
          {
            "atomIds": [
              2,
              0
            ],
            "bo": "SINGLE"
          }
        ]
      },
      "vertexId": 87,
      "buildingBlockId": 65,
      "buildingBlockType": "FRAGMENT",
      "isRCV": false,
      "properties": {
        "ATTACHMENT_POINTS": "1#Xlig:1:SINGLE:0.0192%-0.0048%-0.5645 "
      },
      "uniquefyingPropertyKeys": [],
      "allowedMutationTypes": [
        "DELETE",
        "EXTEND",
        "CHANGEBRANCH",
        "CHANGELINK",
        "ADDLINK",
        "DELETELINK",
        "DELETECHAIN"
      ],
      "vertexType": "MolecularFragment"
    },
    {
      "lstAPs": [
        {
          "id": 265498,
          "atomPositionNumber": 0,
          "atomPositionNumberInMol": 13,
          "apClass": {
            "rule": "SubArS",
            "subClass": 1,
            "bndTyp": "SINGLE"
          },
          "dirVec": {
            "x": 0.2973,
            "y": 0.3873,
            "z": -0.6389
          }
        }
      ],
      "lstSymAPs": [],
      "mol": {
        "atoms": [
          {
            "elSymbol": "C",
            "p3d": {
              "x": 1.6995,
              "y": 0.5593,
              "z": -1.2083
            }
          },
          {
            "elSymbol": "C",
            "p3d": {
              "x": 4.2563,
              "y": 0.8754,
              "z": -2.2592
            }
          },
          {
            "elSymbol": "C",
            "p3d": {
              "x": 2.3334,
              "y": 1.79,
              "z": -1.1338
            }
          },
          {
            "elSymbol": "C",
            "p3d": {
              "x": 2.3422,
              "y": -0.5107,
              "z": -1.8125
            }
          },
          {
            "elSymbol": "C",
            "p3d": {
              "x": 3.612,
              "y": -0.3527,
              "z": -2.3321
            }
          },
          {
            "elSymbol": "C",
            "p3d": {
              "x": 3.6062,
              "y": 1.9513,
              "z": -1.6526
            }
          },
          {
            "elSymbol": "H",
            "p3d": {
              "x": 1.833,
              "y": 2.6461,
              "z": -0.6488
            }
          },
          {
            "elSymbol": "H",
            "p3d": {
              "x": 1.8361,
              "y": -1.4773,
              "z": -1.887
            }
          },
          {
            "elSymbol": "H",
            "p3d": {
              "x": 4.115,
              "y": -1.2043,
              "z": -2.8152
            }
          },
          {
            "elSymbol": "H",
            "p3d": {
              "x": 4.1097,
              "y": 2.9214,
              "z": -1.5842
            }
          },
          {
            "elSymbol": "H",
            "p3d": {
              "x": 5.2498,
              "y": 0.9926,
              "z": -2.665
            }
          }
        ],
        "bonds": [
          {
            "atomIds": [
              0,
              3
            ],
            "bo": "SINGLE"
          },
          {
            "atomIds": [
              3,
              4
            ],
            "bo": "DOUBLE"
          },
          {
            "atomIds": [
              1,
              4
            ],
            "bo": "SINGLE"
          },
          {
            "atomIds": [
              1,
              5
            ],
            "bo": "DOUBLE"
          },
          {
            "atomIds": [
              2,
              5
            ],
            "bo": "SINGLE"
          },
          {
            "atomIds": [
              0,
              2
            ],
            "bo": "DOUBLE"
          },
          {
            "atomIds": [
              4,
              8
            ],
            "bo": "SINGLE"
          },
          {
            "atomIds": [
              5,
              9
            ],
            "bo": "SINGLE"
          },
          {
            "atomIds": [
              1,
              10
            ],
            "bo": "SINGLE"
          },
          {
            "atomIds": [
              2,
              6
            ],
            "bo": "SINGLE"
          },
          {
            "atomIds": [
              3,
              7
            ],
            "bo": "SINGLE"
          }
        ]
      },
      "vertexId": 202775,
      "buildingBlockId": 35,
      "buildingBlockType": "FRAGMENT",
      "isRCV": false,
      "properties": {
        "ATTACHMENT_POINTS": "1#SubArS:1:SINGLE:0.2973%0.3873%-0.6389 "
      },
      "uniquefyingPropertyKeys": [],
      "allowedMutationTypes": [
        "DELETE",
        "EXTEND",
        "CHANGEBRANCH",
        "CHANGELINK",
        "ADDLINK",
        "DELETELINK",
        "DELETECHAIN"
      ],
      "vertexType": "MolecularFragment"
    },
    {
      "lstAPs": [
        {
          "id": 265499,
          "atomPositionNumber": 0,
          "atomPositionNumberInMol": 24,
          "apClass": {
            "rule": "LImidazolylideneSubCS",
            "subClass": 1,
            "bndTyp": "SINGLE"
          },
          "dirVec": {
            "x": -0.2332,
            "y": -4.1999,
            "z": 3.5795
          }
        }
      ],
      "lstSymAPs": [],
      "mol": {
        "atoms": [
          {
            "elSymbol": "C",
            "p3d": {
              "x": 0.8656,
              "y": -5.2062,
              "z": 3.807
            }
          },
          {
            "elSymbol": "C",
            "p3d": {
              "x": 1.054,
              "y": -6.2399,
              "z": 2.8975
            }
          },
          {
            "elSymbol": "H",
            "p3d": {
              "x": 0.3991,
              "y": -6.3501,
              "z": 2.038
            }
          },
          {
            "elSymbol": "C",
            "p3d": {
              "x": 2.0673,
              "y": -7.188,
              "z": 3.1349
            }
          },
          {
            "elSymbol": "H",
            "p3d": {
              "x": 2.2054,
              "y": -7.9981,
              "z": 2.4322
            }
          },
          {
            "elSymbol": "C",
            "p3d": {
              "x": 2.901,
              "y": -7.078,
              "z": 4.2128
            }
          },
          {
            "elSymbol": "H",
            "p3d": {
              "x": 3.6958,
              "y": -7.8112,
              "z": 4.3872
            }
          },
          {
            "elSymbol": "C",
            "p3d": {
              "x": 2.7401,
              "y": -6.0405,
              "z": 5.1034
            }
          },
          {
            "elSymbol": "H",
            "p3d": {
              "x": 3.412,
              "y": -5.9498,
              "z": 5.9565
            }
          },
          {
            "elSymbol": "C",
            "p3d": {
              "x": 1.7365,
              "y": -5.0846,
              "z": 4.9051
            }
          },
          {
            "elSymbol": "H",
            "p3d": {
              "x": 1.6174,
              "y": -4.2762,
              "z": 5.6042
            }
          }
        ],
        "bonds": [
          {
            "atomIds": [
              1,
              0
            ],
            "bo": "SINGLE"
          },
          {
            "atomIds": [
              2,
              1
            ],
            "bo": "SINGLE"
          },
          {
            "atomIds": [
              3,
              1
            ],
            "bo": "DOUBLE"
          },
          {
            "atomIds": [
              4,
              3
            ],
            "bo": "SINGLE"
          },
          {
            "atomIds": [
              5,
              3
            ],
            "bo": "SINGLE"
          },
          {
            "atomIds": [
              6,
              5
            ],
            "bo": "SINGLE"
          },
          {
            "atomIds": [
              7,
              5
            ],
            "bo": "DOUBLE"
          },
          {
            "atomIds": [
              8,
              7
            ],
            "bo": "SINGLE"
          },
          {
            "atomIds": [
              9,
              0
            ],
            "bo": "DOUBLE"
          },
          {
            "atomIds": [
              10,
              9
            ],
            "bo": "SINGLE"
          },
          {
            "atomIds": [
              7,
              9
            ],
            "bo": "SINGLE"
          }
        ]
      },
      "vertexId": 203279,
      "buildingBlockId": 21,
      "buildingBlockType": "FRAGMENT",
      "isRCV": false,
      "properties": {
        "ATTACHMENT_POINTS": "1#LImidazolylideneSubCS:1:SINGLE:-0.2332%-4.1999%3.5795 "
      },
      "uniquefyingPropertyKeys": [],
      "allowedMutationTypes": [
        "DELETE",
        "EXTEND",
        "CHANGEBRANCH",
        "CHANGELINK",
        "ADDLINK",
        "DELETELINK",
        "DELETECHAIN"
      ],
      "vertexType": "MolecularFragment"
    },
    {
      "lstAPs": [
        {
          "id": 265500,
          "atomPositionNumber": 0,
          "atomPositionNumberInMol": 35,
          "apClass": {
            "rule": "SubArS",
            "subClass": 1,
            "bndTyp": "SINGLE"
          },
          "dirVec": {
            "x": 0.2973,
            "y": 0.3873,
            "z": -0.6389
          }
        }
      ],
      "lstSymAPs": [],
      "mol": {
        "atoms": [
          {
            "elSymbol": "C",
            "p3d": {
              "x": 1.6995,
              "y": 0.5593,
              "z": -1.2083
            }
          },
          {
            "elSymbol": "C",
            "p3d": {
              "x": 4.2563,
              "y": 0.8754,
              "z": -2.2592
            }
          },
          {
            "elSymbol": "C",
            "p3d": {
              "x": 2.3334,
              "y": 1.79,
              "z": -1.1338
            }
          },
          {
            "elSymbol": "C",
            "p3d": {
              "x": 2.3422,
              "y": -0.5107,
              "z": -1.8125
            }
          },
          {
            "elSymbol": "C",
            "p3d": {
              "x": 3.612,
              "y": -0.3527,
              "z": -2.3321
            }
          },
          {
            "elSymbol": "C",
            "p3d": {
              "x": 3.6062,
              "y": 1.9513,
              "z": -1.6526
            }
          },
          {
            "elSymbol": "H",
            "p3d": {
              "x": 1.833,
              "y": 2.6461,
              "z": -0.6488
            }
          },
          {
            "elSymbol": "H",
            "p3d": {
              "x": 1.8361,
              "y": -1.4773,
              "z": -1.887
            }
          },
          {
            "elSymbol": "H",
            "p3d": {
              "x": 4.115,
              "y": -1.2043,
              "z": -2.8152
            }
          },
          {
            "elSymbol": "H",
            "p3d": {
              "x": 4.1097,
              "y": 2.9214,
              "z": -1.5842
            }
          },
          {
            "elSymbol": "H",
            "p3d": {
              "x": 5.2498,
              "y": 0.9926,
              "z": -2.665
            }
          }
        ],
        "bonds": [
          {
            "atomIds": [
              0,
              3
            ],
            "bo": "SINGLE"
          },
          {
            "atomIds": [
              3,
              4
            ],
            "bo": "DOUBLE"
          },
          {
            "atomIds": [
              1,
              4
            ],
            "bo": "SINGLE"
          },
          {
            "atomIds": [
              1,
              5
            ],
            "bo": "DOUBLE"
          },
          {
            "atomIds": [
              2,
              5
            ],
            "bo": "SINGLE"
          },
          {
            "atomIds": [
              0,
              2
            ],
            "bo": "DOUBLE"
          },
          {
            "atomIds": [
              4,
              8
            ],
            "bo": "SINGLE"
          },
          {
            "atomIds": [
              5,
              9
            ],
            "bo": "SINGLE"
          },
          {
            "atomIds": [
              1,
              10
            ],
            "bo": "SINGLE"
          },
          {
            "atomIds": [
              2,
              6
            ],
            "bo": "SINGLE"
          },
          {
            "atomIds": [
              3,
              7
            ],
            "bo": "SINGLE"
          }
        ]
      },
      "vertexId": 203278,
      "buildingBlockId": 35,
      "buildingBlockType": "FRAGMENT",
      "isRCV": false,
      "properties": {
        "ATTACHMENT_POINTS": "1#SubArS:1:SINGLE:0.2973%0.3873%-0.6389 "
      },
      "uniquefyingPropertyKeys": [],
      "allowedMutationTypes": [
        "DELETE",
        "EXTEND",
        "CHANGEBRANCH",
        "CHANGELINK",
        "ADDLINK",
        "DELETELINK",
        "DELETECHAIN"
      ],
      "vertexType": "MolecularFragment"
    },
    {
      "lstAPs": [
        {
          "id": 265501,
          "atomPositionNumber": 0,
          "atomPositionNumberInMol": 46,
          "apClass": {
            "rule": "LImidazolylideneSubCS",
            "subClass": 1,
            "bndTyp": "SINGLE"
          },
          "dirVec": {
            "x": -0.2332,
            "y": -4.1999,
            "z": 3.5795
          }
        }
      ],
      "lstSymAPs": [],
      "mol": {
        "atoms": [
          {
            "elSymbol": "C",
            "p3d": {
              "x": 0.8656,
              "y": -5.2062,
              "z": 3.807
            }
          },
          {
            "elSymbol": "C",
            "p3d": {
              "x": 1.054,
              "y": -6.2399,
              "z": 2.8975
            }
          },
          {
            "elSymbol": "H",
            "p3d": {
              "x": 0.3991,
              "y": -6.3501,
              "z": 2.038
            }
          },
          {
            "elSymbol": "C",
            "p3d": {
              "x": 2.0673,
              "y": -7.188,
              "z": 3.1349
            }
          },
          {
            "elSymbol": "H",
            "p3d": {
              "x": 2.2054,
              "y": -7.9981,
              "z": 2.4322
            }
          },
          {
            "elSymbol": "C",
            "p3d": {
              "x": 2.901,
              "y": -7.078,
              "z": 4.2128
            }
          },
          {
            "elSymbol": "H",
            "p3d": {
              "x": 3.6958,
              "y": -7.8112,
              "z": 4.3872
            }
          },
          {
            "elSymbol": "C",
            "p3d": {
              "x": 2.7401,
              "y": -6.0405,
              "z": 5.1034
            }
          },
          {
            "elSymbol": "H",
            "p3d": {
              "x": 3.412,
              "y": -5.9498,
              "z": 5.9565
            }
          },
          {
            "elSymbol": "C",
            "p3d": {
              "x": 1.7365,
              "y": -5.0846,
              "z": 4.9051
            }
          },
          {
            "elSymbol": "H",
            "p3d": {
              "x": 1.6174,
              "y": -4.2762,
              "z": 5.6042
            }
          }
        ],
        "bonds": [
          {
            "atomIds": [
              1,
              0
            ],
            "bo": "SINGLE"
          },
          {
            "atomIds": [
              2,
              1
            ],
            "bo": "SINGLE"
          },
          {
            "atomIds": [
              3,
              1
            ],
            "bo": "DOUBLE"
          },
          {
            "atomIds": [
              4,
              3
            ],
            "bo": "SINGLE"
          },
          {
            "atomIds": [
              5,
              3
            ],
            "bo": "SINGLE"
          },
          {
            "atomIds": [
              6,
              5
            ],
            "bo": "SINGLE"
          },
          {
            "atomIds": [
              7,
              5
            ],
            "bo": "DOUBLE"
          },
          {
            "atomIds": [
              8,
              7
            ],
            "bo": "SINGLE"
          },
          {
            "atomIds": [
              9,
              0
            ],
            "bo": "DOUBLE"
          },
          {
            "atomIds": [
              10,
              9
            ],
            "bo": "SINGLE"
          },
          {
            "atomIds": [
              7,
              9
            ],
            "bo": "SINGLE"
          }
        ]
      },
      "vertexId": 202784,
      "buildingBlockId": 21,
      "buildingBlockType": "FRAGMENT",
      "isRCV": false,
      "properties": {
        "ATTACHMENT_POINTS": "1#LImidazolylideneSubCS:1:SINGLE:-0.2332%-4.1999%3.5795 "
      },
      "uniquefyingPropertyKeys": [],
      "allowedMutationTypes": [
        "DELETE",
        "EXTEND",
        "CHANGEBRANCH",
        "CHANGELINK",
        "ADDLINK",
        "DELETELINK",
        "DELETECHAIN"
      ],
      "vertexType": "MolecularFragment"
    }
  ],
  "gEdges": [
    {
      "srcAPID": 265446,
      "trgAPID": 265449,
      "bondType": "SINGLE"
    },
    {
      "srcAPID": 265448,
      "trgAPID": 265450,
      "bondType": "SINGLE"
    },
    {
      "srcAPID": 265447,
      "trgAPID": 265455,
      "bondType": "SINGLE"
    },
    {
      "srcAPID": 265451,
      "trgAPID": 265498,
      "bondType": "SINGLE"
    },
    {
      "srcAPID": 265453,
      "trgAPID": 265499,
      "bondType": "SINGLE"
    },
    {
      "srcAPID": 265454,
      "trgAPID": 265500,
      "bondType": "SINGLE"
    },
    {
      "srcAPID": 265452,
      "trgAPID": 265501,
      "bondType": "SINGLE"
    }
  ],
  "gRings": [],
  "symVertices": [
    {
      "symIds": [
        202775,
        203278
      ]
    },
    {
      "symIds": [
        203279,
        202784
      ]
    }
  ]
}

> <SMILES>
[Pt](C#O)(C#N)([C]1N(C(=C(N1C=2C(=C(C(=C(C2[H])[H])[H])[H])[H])C=3C([H])=C([H])C([H])=C([H])C3[H])C=4C([H])=C([H])C([H])=C([H])C4[H])C=5C(=C(C(=C(C5[H])[H])[H])[H])[H])C#N

$$$$
