M00002239
  CDK     04222209293D

 65 68  0  0  0  0  0  0  0  0999 V2000
   -0.0387   -3.0452   -1.0549 Pt  0  0  0  0  0  0  0  0  0  0  0  0
    0.1197   -4.9540   -1.3568 C   0  0  0  0  0  0  0  0  0  0  0  0
    0.2475   -6.0779   -1.5311 O   0  0  0  0  0  0  0  0  0  0  0  0
   -2.0150   -2.4301   -1.0155 O   0  0  0  0  0  0  0  0  0  0  0  0
   -2.9081   -3.4411   -1.4211 C   0  0  0  0  0  0  0  0  0  0  0  0
   -3.9114   -2.9942   -1.4025 H   0  0  0  0  0  0  0  0  0  0  0  0
   -2.8557   -4.2799   -0.7157 H   0  0  0  0  0  0  0  0  0  0  0  0
   -2.6594   -3.7654   -2.4393 H   0  0  0  0  0  0  0  0  0  0  0  0
   -0.1420   -0.7803   -0.7558 P   0  0  0  0  0  0  0  0  0  0  0  0
    1.4373    0.1244   -0.2865 C   0  0  0  0  0  0  0  0  0  0  0  0
    1.1939    0.7773    0.8678 C   0  0  0  0  0  0  0  0  0  0  0  0
   -0.1807    0.6405    1.4341 C   0  0  0  0  0  0  0  0  0  0  0  0
   -1.0592   -0.1065    0.7330 C   0  0  0  0  0  0  0  0  0  0  0  0
   -0.5147    1.3222    2.7014 C   0  0  0  0  0  0  0  0  0  0  0  0
   -1.1654    2.6064    5.1019 C   0  0  0  0  0  0  0  0  0  0  0  0
   -0.7372    0.5675    3.8638 C   0  0  0  0  0  0  0  0  0  0  0  0
   -0.6163    2.7211    2.7438 C   0  0  0  0  0  0  0  0  0  0  0  0
   -0.9429    3.3581    3.9437 C   0  0  0  0  0  0  0  0  0  0  0  0
   -1.0606    1.2123    5.0602 C   0  0  0  0  0  0  0  0  0  0  0  0
   -0.6562   -0.5179    3.8305 H   0  0  0  0  0  0  0  0  0  0  0  0
   -0.4336    3.3065    1.8443 H   0  0  0  0  0  0  0  0  0  0  0  0
   -1.0211    4.4438    3.9764 H   0  0  0  0  0  0  0  0  0  0  0  0
   -1.2313    0.6269    5.9623 H   0  0  0  0  0  0  0  0  0  0  0  0
   -1.4182    3.1059    6.0351 H   0  0  0  0  0  0  0  0  0  0  0  0
    2.6558    0.0702   -1.1066 C   0  0  0  0  0  0  0  0  0  0  0  0
    3.4926    0.6103   -0.6332 H   0  0  0  0  0  0  0  0  0  0  0  0
    3.0103   -0.9683   -1.2648 H   0  0  0  0  0  0  0  0  0  0  0  0
    2.5150    0.5122   -2.1049 H   0  0  0  0  0  0  0  0  0  0  0  0
   -0.7127    0.0016   -2.3954 C   0  0  0  0  0  0  0  0  0  0  0  0
   -0.7780   -0.4578   -4.8673 C   0  0  0  0  0  0  0  0  0  0  0  0
   -2.6631    0.8192   -3.7543 C   0  0  0  0  0  0  0  0  0  0  0  0
   -2.2813   -0.1478   -4.8836 C   0  0  0  0  0  0  0  0  0  0  0  0
   -2.2180    0.2843   -2.3830 C   0  0  0  0  0  0  0  0  0  0  0  0
   -0.3387   -1.0030   -3.4975 C   0  0  0  0  0  0  0  0  0  0  0  0
   -0.2027    0.4547   -5.1133 H   0  0  0  0  0  0  0  0  0  0  0  0
   -2.2069    1.8101   -3.9392 H   0  0  0  0  0  0  0  0  0  0  0  0
   -2.8564   -1.0884   -4.7778 H   0  0  0  0  0  0  0  0  0  0  0  0
   -2.7864   -0.6480   -2.1480 H   0  0  0  0  0  0  0  0  0  0  0  0
   -0.8393   -1.9879   -3.3259 H   0  0  0  0  0  0  0  0  0  0  0  0
   -0.1569    0.9589   -2.5489 H   0  0  0  0  0  0  0  0  0  0  0  0
   -0.5356   -1.1942   -5.6564 H   0  0  0  0  0  0  0  0  0  0  0  0
   -3.7573    0.9813   -3.7518 H   0  0  0  0  0  0  0  0  0  0  0  0
   -2.5687    0.2804   -5.8615 H   0  0  0  0  0  0  0  0  0  0  0  0
   -2.4867    1.0195   -1.6004 H   0  0  0  0  0  0  0  0  0  0  0  0
    0.7526   -1.2066   -3.5188 H   0  0  0  0  0  0  0  0  0  0  0  0
    2.1923    1.6045    1.5753 C   0  0  0  0  0  0  0  0  0  0  0  0
    4.1009    3.1656    2.9013 C   0  0  0  0  0  0  0  0  0  0  0  0
    2.6661    2.7868    0.9855 C   0  0  0  0  0  0  0  0  0  0  0  0
    2.6755    1.2066    2.8315 C   0  0  0  0  0  0  0  0  0  0  0  0
    3.6292    1.9873    3.4891 C   0  0  0  0  0  0  0  0  0  0  0  0
    3.6173    3.5642    1.6512 C   0  0  0  0  0  0  0  0  0  0  0  0
    2.2909    3.0961    0.0119 H   0  0  0  0  0  0  0  0  0  0  0  0
    2.3008    0.2938    3.2929 H   0  0  0  0  0  0  0  0  0  0  0  0
    4.0036    1.6778    4.4638 H   0  0  0  0  0  0  0  0  0  0  0  0
    3.9827    4.4825    1.1944 H   0  0  0  0  0  0  0  0  0  0  0  0
    4.8428    3.7722    3.4173 H   0  0  0  0  0  0  0  0  0  0  0  0
   -2.4722   -0.4027    1.0068 C   0  0  0  0  0  0  0  0  0  0  0  0
   -3.1413    0.3156    0.5056 H   0  0  0  0  0  0  0  0  0  0  0  0
   -2.7732   -1.4114    0.6474 H   0  0  0  0  0  0  0  0  0  0  0  0
   -2.7023   -0.3557    2.0823 H   0  0  0  0  0  0  0  0  0  0  0  0
    2.2115   -3.5720   -1.0645 S   0  0  0  0  0  0  0  0  0  0  0  0
    2.4801   -3.4500    0.7254 C   0  0  0  0  0  0  0  0  0  0  0  0
    3.1983   -4.2164    1.0381 H   0  0  0  0  0  0  0  0  0  0  0  0
    1.5436   -3.6007    1.2753 H   0  0  0  0  0  0  0  0  0  0  0  0
    2.8847   -2.4649    0.9831 H   0  0  0  0  0  0  0  0  0  0  0  0
  2  3  3  0  0  0  0
  1  2  1  0  0  0  0
  5  6  1  0  0  0  0
  5  7  1  0  0  0  0
  5  8  1  0  0  0  0
  4  5  1  0  0  0  0
  1  4  1  0  0  0  0
 10  9  1  0  0  0  0
 11 10  2  0  0  0  0
 12 11  1  0  0  0  0
 13  9  1  0  0  0  0
 12 13  2  0  0  0  0
  1  9  1  0  0  0  0
 14 17  1  0  0  0  0
 17 18  2  0  0  0  0
 15 18  1  0  0  0  0
 15 19  2  0  0  0  0
 16 19  1  0  0  0  0
 14 16  2  0  0  0  0
 18 22  1  0  0  0  0
 19 23  1  0  0  0  0
 15 24  1  0  0  0  0
 16 20  1  0  0  0  0
 17 21  1  0  0  0  0
 12 14  1  0  0  0  0
 25 26  1  0  0  0  0
 25 27  1  0  0  0  0
 25 28  1  0  0  0  0
 10 25  1  0  0  0  0
 29 40  1  0  0  0  0
 29 33  1  0  0  0  0
 29 34  1  0  0  0  0
 30 35  1  0  0  0  0
 30 41  1  0  0  0  0
 30 32  1  0  0  0  0
 30 34  1  0  0  0  0
 31 36  1  0  0  0  0
 31 42  1  0  0  0  0
 31 33  1  0  0  0  0
 31 32  1  0  0  0  0
 32 37  1  0  0  0  0
 32 43  1  0  0  0  0
 33 38  1  0  0  0  0
 33 44  1  0  0  0  0
 34 39  1  0  0  0  0
 34 45  1  0  0  0  0
  9 29  1  0  0  0  0
 46 49  1  0  0  0  0
 49 50  2  0  0  0  0
 47 50  1  0  0  0  0
 47 51  2  0  0  0  0
 48 51  1  0  0  0  0
 46 48  2  0  0  0  0
 50 54  1  0  0  0  0
 51 55  1  0  0  0  0
 47 56  1  0  0  0  0
 48 52  1  0  0  0  0
 49 53  1  0  0  0  0
 11 46  1  0  0  0  0
 57 58  1  0  0  0  0
 57 59  1  0  0  0  0
 57 60  1  0  0  0  0
 13 57  1  0  0  0  0
 62 63  1  0  0  0  0
 62 64  1  0  0  0  0
 62 65  1  0  0  0  0
 61 62  1  0  0  0  0
  1 61  1  0  0  0  0
M  END
> <PM6_ENERGY>
-105.651

> <UID>
FYFFPINLBPTOGF-CCFZOUNGNA-M

> <FITNESS>
1.14449

> <GCODE>
2892

> <GraphENC>
2892 72_1_0,80_65_1,116_56_1,85_64_1,54251_36_1,51456_31_1,51451_35_1,51468_36_1,54250_31_1, 72_0_80_0_SINGLE_Xlig:0_Xlig:1,72_2_116_1_SINGLE_scaff:0_MPhosphole:1,72_1_85_0_SINGLE_Xlig:0_Xlig:1,116_4_54251_0_SINGLE_LPhospholeSubBeta:0_SubArS:1,116_2_51456_0_SINGLE_LPhospholeSubAlpha:0_SubRS:1,116_0_51451_0_SINGLE_LPhospholeSubR:0_SubRM:1,116_3_51468_0_SINGLE_LPhospholeSubBeta:0_SubArS:1,116_5_54250_0_SINGLE_LPhospholeSubAlpha:0_SubRS:1, SymmetricSet [symIds=[51456, 54250]] SymmetricSet [symIds=[54251, 51468]] 

> <GraphJson>
{
  "graphId": 2892,
  "gVertices": [
    {
      "lstAPs": [
        {
          "id": 72178,
          "atomPositionNumber": 0,
          "atomPositionNumberInMol": 0,
          "apClass": {
            "rule": "Xlig",
            "subClass": 0,
            "bndTyp": "SINGLE"
          },
          "dirVec": {
            "x": -2.3339,
            "y": -0.0087,
            "z": 0.8172
          }
        },
        {
          "id": 72179,
          "atomPositionNumber": 0,
          "atomPositionNumberInMol": 0,
          "apClass": {
            "rule": "Xlig",
            "subClass": 0,
            "bndTyp": "SINGLE"
          },
          "dirVec": {
            "x": 2.336,
            "y": -5.0E-4,
            "z": 0.829
          }
        },
        {
          "id": 72180,
          "atomPositionNumber": 0,
          "atomPositionNumberInMol": 0,
          "apClass": {
            "rule": "scaff",
            "subClass": 0,
            "bndTyp": "SINGLE"
          },
          "dirVec": {
            "x": -0.0095,
            "y": 0.0046,
            "z": -1.7113
          }
        }
      ],
      "lstSymAPs": [
        {
          "symIds": [
            0,
            1
          ]
        }
      ],
      "mol": {
        "atoms": [
          {
            "elSymbol": "Pt",
            "p3d": {
              "x": -0.0098,
              "y": 0.0049,
              "z": 0.6289
            }
          },
          {
            "elSymbol": "C",
            "p3d": {
              "x": -6.0E-4,
              "y": 0.0016,
              "z": 2.5609
            }
          },
          {
            "elSymbol": "O",
            "p3d": {
              "x": 0.0025,
              "y": -0.0041,
              "z": 3.6974
            }
          },
          {
            "elSymbol": "Du",
            "p3d": {
              "x": -0.007,
              "y": 1.0013,
              "z": 0.6372
            }
          },
          {
            "elSymbol": "Du",
            "p3d": {
              "x": -0.0014,
              "y": 0.9902,
              "z": 2.5698
            }
          }
        ],
        "bonds": [
          {
            "atomIds": [
              1,
              2
            ],
            "bo": "TRIPLE"
          },
          {
            "atomIds": [
              0,
              1
            ],
            "bo": "SINGLE"
          },
          {
            "atomIds": [
              3,
              0
            ],
            "bo": "SINGLE"
          },
          {
            "atomIds": [
              4,
              1
            ],
            "bo": "SINGLE"
          }
        ]
      },
      "vertexId": 72,
      "buildingBlockId": 0,
      "buildingBlockType": "SCAFFOLD",
      "isRCV": false,
      "properties": {
        "ATTACHMENT_POINTS": "1#Xlig:0:SINGLE:-2.3339%-0.0087%0.8172,Xlig:0:SINGLE:2.3360%-0.0005%0.8290,scaff:0:SINGLE:-0.0095%0.0046%-1.7113 "
      },
      "uniquefyingPropertyKeys": [],
      "allowedMutationTypes": [
        "DELETE",
        "EXTEND",
        "CHANGEBRANCH",
        "CHANGELINK",
        "ADDLINK",
        "DELETELINK",
        "DELETECHAIN"
      ],
      "vertexType": "MolecularFragment"
    },
    {
      "lstAPs": [
        {
          "id": 72181,
          "atomPositionNumber": 0,
          "atomPositionNumberInMol": 5,
          "apClass": {
            "rule": "Xlig",
            "subClass": 1,
            "bndTyp": "SINGLE"
          },
          "dirVec": {
            "x": -0.1753,
            "y": 0.0948,
            "z": -0.4464
          }
        }
      ],
      "lstSymAPs": [],
      "mol": {
        "atoms": [
          {
            "elSymbol": "O",
            "p3d": {
              "x": -0.3534,
              "y": 2.1044,
              "z": -0.7339
            }
          },
          {
            "elSymbol": "C",
            "p3d": {
              "x": -0.5345,
              "y": 2.7646,
              "z": 0.4801
            }
          },
          {
            "elSymbol": "H",
            "p3d": {
              "x": -0.3728,
              "y": 3.8337,
              "z": 0.2724
            }
          },
          {
            "elSymbol": "H",
            "p3d": {
              "x": 0.1816,
              "y": 2.4161,
              "z": 1.2384
            }
          },
          {
            "elSymbol": "H",
            "p3d": {
              "x": -1.553,
              "y": 2.6149,
              "z": 0.8489
            }
          }
        ],
        "bonds": [
          {
            "atomIds": [
              1,
              2
            ],
            "bo": "SINGLE"
          },
          {
            "atomIds": [
              1,
              3
            ],
            "bo": "SINGLE"
          },
          {
            "atomIds": [
              1,
              4
            ],
            "bo": "SINGLE"
          },
          {
            "atomIds": [
              0,
              1
            ],
            "bo": "SINGLE"
          }
        ]
      },
      "vertexId": 80,
      "buildingBlockId": 64,
      "buildingBlockType": "FRAGMENT",
      "isRCV": false,
      "properties": {
        "ATTACHMENT_POINTS": "1#Xlig:1:SINGLE:-0.1753%0.0948%-0.4464 "
      },
      "uniquefyingPropertyKeys": [],
      "allowedMutationTypes": [
        "DELETE",
        "EXTEND",
        "CHANGEBRANCH",
        "CHANGELINK",
        "ADDLINK",
        "DELETELINK",
        "DELETECHAIN"
      ],
      "vertexType": "MolecularFragment"
    },
    {
      "lstAPs": [
        {
          "id": 72182,
          "atomPositionNumber": 0,
          "atomPositionNumberInMol": 10,
          "apClass": {
            "rule": "LPhospholeSubR",
            "subClass": 0,
            "bndTyp": "SINGLE"
          },
          "dirVec": {
            "x": -0.1583,
            "y": -3.1445,
            "z": -2.0557
          }
        },
        {
          "id": 72183,
          "atomPositionNumber": 0,
          "atomPositionNumberInMol": 10,
          "apClass": {
            "rule": "MPhosphole",
            "subClass": 1,
            "bndTyp": "SINGLE"
          },
          "dirVec": {
            "x": -0.003,
            "y": -0.0033,
            "z": 0.0013
          }
        },
        {
          "id": 72184,
          "atomPositionNumber": 1,
          "atomPositionNumberInMol": 11,
          "apClass": {
            "rule": "LPhospholeSubAlpha",
            "subClass": 0,
            "bndTyp": "SINGLE"
          },
          "dirVec": {
            "x": 3.2115,
            "y": -2.5535,
            "z": -1.0585
          }
        },
        {
          "id": 72185,
          "atomPositionNumber": 2,
          "atomPositionNumberInMol": 12,
          "apClass": {
            "rule": "LPhospholeSubBeta",
            "subClass": 0,
            "bndTyp": "SINGLE"
          },
          "dirVec": {
            "x": 4.2656,
            "y": -1.1283,
            "z": -3.6461
          }
        },
        {
          "id": 72186,
          "atomPositionNumber": 3,
          "atomPositionNumberInMol": 13,
          "apClass": {
            "rule": "LPhospholeSubBeta",
            "subClass": 0,
            "bndTyp": "SINGLE"
          },
          "dirVec": {
            "x": 2.053,
            "y": 0.1072,
            "z": -5.2957
          }
        },
        {
          "id": 72187,
          "atomPositionNumber": 4,
          "atomPositionNumberInMol": 14,
          "apClass": {
            "rule": "LPhospholeSubAlpha",
            "subClass": 0,
            "bndTyp": "SINGLE"
          },
          "dirVec": {
            "x": -0.7998,
            "y": -0.3182,
            "z": -4.0879
          }
        }
      ],
      "lstSymAPs": [
        {
          "symIds": [
            2,
            5
          ]
        },
        {
          "symIds": [
            3,
            4
          ]
        }
      ],
      "mol": {
        "atoms": [
          {
            "elSymbol": "P",
            "p3d": {
              "x": 0.6287,
              "y": -1.5145,
              "z": -1.8705
            }
          },
          {
            "elSymbol": "C",
            "p3d": {
              "x": 2.405,
              "y": -1.8003,
              "z": -2.0775
            }
          },
          {
            "elSymbol": "C",
            "p3d": {
              "x": 2.8079,
              "y": -1.1982,
              "z": -3.1964
            }
          },
          {
            "elSymbol": "C",
            "p3d": {
              "x": 1.7253,
              "y": -0.6,
              "z": -4.0254
            }
          },
          {
            "elSymbol": "C",
            "p3d": {
              "x": 0.5038,
              "y": -0.7649,
              "z": -3.5177
            }
          }
        ],
        "bonds": [
          {
            "atomIds": [
              1,
              0
            ],
            "bo": "SINGLE"
          },
          {
            "atomIds": [
              2,
              1
            ],
            "bo": "DOUBLE"
          },
          {
            "atomIds": [
              3,
              2
            ],
            "bo": "SINGLE"
          },
          {
            "atomIds": [
              4,
              0
            ],
            "bo": "SINGLE"
          },
          {
            "atomIds": [
              3,
              4
            ],
            "bo": "DOUBLE"
          }
        ]
      },
      "vertexId": 116,
      "buildingBlockId": 55,
      "buildingBlockType": "FRAGMENT",
      "isRCV": false,
      "properties": {
        "ATTACHMENT_POINTS": "1#LPhospholeSubR:0:SINGLE:-0.1583%-3.1445%-2.0557,MPhosphole:1:SINGLE:-0.0030%-0.0033%0.0013 2#LPhospholeSubAlpha:0:SINGLE:3.2115%-2.5535%-1.0585 3#LPhospholeSubBeta:0:SINGLE:4.2656%-1.1283%-3.6461 4#LPhospholeSubBeta:0:SINGLE:2.0530%0.1072%-5.2957 5#LPhospholeSubAlpha:0:SINGLE:-0.7998%-0.3182%-4.0879 "
      },
      "uniquefyingPropertyKeys": [],
      "allowedMutationTypes": [
        "DELETE",
        "EXTEND",
        "CHANGEBRANCH",
        "CHANGELINK",
        "ADDLINK",
        "DELETELINK",
        "DELETECHAIN"
      ],
      "vertexType": "MolecularFragment"
    },
    {
      "lstAPs": [
        {
          "id": 72188,
          "atomPositionNumber": 0,
          "atomPositionNumberInMol": 62,
          "apClass": {
            "rule": "Xlig",
            "subClass": 1,
            "bndTyp": "SINGLE"
          },
          "dirVec": {
            "x": -0.102,
            "y": 0.0185,
            "z": -1.0265
          }
        }
      ],
      "lstSymAPs": [],
      "mol": {
        "atoms": [
          {
            "elSymbol": "S",
            "p3d": {
              "x": -0.3267,
              "y": 2.3403,
              "z": -1.0022
            }
          },
          {
            "elSymbol": "C",
            "p3d": {
              "x": -0.626,
              "y": 2.4866,
              "z": 0.7805
            }
          },
          {
            "elSymbol": "H",
            "p3d": {
              "x": 0.1766,
              "y": 3.089,
              "z": 1.2414
            }
          },
          {
            "elSymbol": "H",
            "p3d": {
              "x": -0.651,
              "y": 1.5065,
              "z": 1.2643
            }
          },
          {
            "elSymbol": "H",
            "p3d": {
              "x": -1.5658,
              "y": 2.981,
              "z": 0.9515
            }
          }
        ],
        "bonds": [
          {
            "atomIds": [
              1,
              2
            ],
            "bo": "SINGLE"
          },
          {
            "atomIds": [
              1,
              3
            ],
            "bo": "SINGLE"
          },
          {
            "atomIds": [
              1,
              4
            ],
            "bo": "SINGLE"
          },
          {
            "atomIds": [
              0,
              1
            ],
            "bo": "SINGLE"
          }
        ]
      },
      "vertexId": 85,
      "buildingBlockId": 63,
      "buildingBlockType": "FRAGMENT",
      "isRCV": false,
      "properties": {
        "ATTACHMENT_POINTS": "1#Xlig:1:SINGLE:-0.1020%0.0185%-1.0265 "
      },
      "uniquefyingPropertyKeys": [],
      "allowedMutationTypes": [
        "DELETE",
        "EXTEND",
        "CHANGEBRANCH",
        "CHANGELINK",
        "ADDLINK",
        "DELETELINK",
        "DELETECHAIN"
      ],
      "vertexType": "MolecularFragment"
    },
    {
      "lstAPs": [
        {
          "id": 72237,
          "atomPositionNumber": 0,
          "atomPositionNumberInMol": 15,
          "apClass": {
            "rule": "SubArS",
            "subClass": 1,
            "bndTyp": "SINGLE"
          },
          "dirVec": {
            "x": 0.2973,
            "y": 0.3873,
            "z": -0.6389
          }
        }
      ],
      "lstSymAPs": [],
      "mol": {
        "atoms": [
          {
            "elSymbol": "C",
            "p3d": {
              "x": 1.6995,
              "y": 0.5593,
              "z": -1.2083
            }
          },
          {
            "elSymbol": "C",
            "p3d": {
              "x": 4.2563,
              "y": 0.8754,
              "z": -2.2592
            }
          },
          {
            "elSymbol": "C",
            "p3d": {
              "x": 2.3334,
              "y": 1.79,
              "z": -1.1338
            }
          },
          {
            "elSymbol": "C",
            "p3d": {
              "x": 2.3422,
              "y": -0.5107,
              "z": -1.8125
            }
          },
          {
            "elSymbol": "C",
            "p3d": {
              "x": 3.612,
              "y": -0.3527,
              "z": -2.3321
            }
          },
          {
            "elSymbol": "C",
            "p3d": {
              "x": 3.6062,
              "y": 1.9513,
              "z": -1.6526
            }
          },
          {
            "elSymbol": "H",
            "p3d": {
              "x": 1.833,
              "y": 2.6461,
              "z": -0.6488
            }
          },
          {
            "elSymbol": "H",
            "p3d": {
              "x": 1.8361,
              "y": -1.4773,
              "z": -1.887
            }
          },
          {
            "elSymbol": "H",
            "p3d": {
              "x": 4.115,
              "y": -1.2043,
              "z": -2.8152
            }
          },
          {
            "elSymbol": "H",
            "p3d": {
              "x": 4.1097,
              "y": 2.9214,
              "z": -1.5842
            }
          },
          {
            "elSymbol": "H",
            "p3d": {
              "x": 5.2498,
              "y": 0.9926,
              "z": -2.665
            }
          }
        ],
        "bonds": [
          {
            "atomIds": [
              0,
              3
            ],
            "bo": "SINGLE"
          },
          {
            "atomIds": [
              3,
              4
            ],
            "bo": "DOUBLE"
          },
          {
            "atomIds": [
              1,
              4
            ],
            "bo": "SINGLE"
          },
          {
            "atomIds": [
              1,
              5
            ],
            "bo": "DOUBLE"
          },
          {
            "atomIds": [
              2,
              5
            ],
            "bo": "SINGLE"
          },
          {
            "atomIds": [
              0,
              2
            ],
            "bo": "DOUBLE"
          },
          {
            "atomIds": [
              4,
              8
            ],
            "bo": "SINGLE"
          },
          {
            "atomIds": [
              5,
              9
            ],
            "bo": "SINGLE"
          },
          {
            "atomIds": [
              1,
              10
            ],
            "bo": "SINGLE"
          },
          {
            "atomIds": [
              2,
              6
            ],
            "bo": "SINGLE"
          },
          {
            "atomIds": [
              3,
              7
            ],
            "bo": "SINGLE"
          }
        ]
      },
      "vertexId": 54251,
      "buildingBlockId": 35,
      "buildingBlockType": "FRAGMENT",
      "isRCV": false,
      "properties": {
        "ATTACHMENT_POINTS": "1#SubArS:1:SINGLE:0.2973%0.3873%-0.6389 "
      },
      "uniquefyingPropertyKeys": [],
      "allowedMutationTypes": [
        "DELETE",
        "EXTEND",
        "CHANGEBRANCH",
        "CHANGELINK",
        "ADDLINK",
        "DELETELINK",
        "DELETECHAIN"
      ],
      "vertexType": "MolecularFragment"
    },
    {
      "lstAPs": [
        {
          "id": 72238,
          "atomPositionNumber": 0,
          "atomPositionNumberInMol": 26,
          "apClass": {
            "rule": "SubRS",
            "subClass": 1,
            "bndTyp": "SINGLE"
          },
          "dirVec": {
            "x": 0.2865,
            "y": 0.3959,
            "z": -0.6387
          }
        }
      ],
      "lstSymAPs": [],
      "mol": {
        "atoms": [
          {
            "elSymbol": "C",
            "p3d": {
              "x": 0.3969,
              "y": -0.0496,
              "z": 0.8235
            }
          },
          {
            "elSymbol": "H",
            "p3d": {
              "x": -0.6146,
              "y": -0.163,
              "z": 1.2402
            }
          },
          {
            "elSymbol": "H",
            "p3d": {
              "x": 0.9335,
              "y": -0.9979,
              "z": 0.8998
            }
          },
          {
            "elSymbol": "H",
            "p3d": {
              "x": 0.9252,
              "y": 0.7237,
              "z": 1.3995
            }
          }
        ],
        "bonds": [
          {
            "atomIds": [
              0,
              1
            ],
            "bo": "SINGLE"
          },
          {
            "atomIds": [
              0,
              2
            ],
            "bo": "SINGLE"
          },
          {
            "atomIds": [
              0,
              3
            ],
            "bo": "SINGLE"
          }
        ]
      },
      "vertexId": 51456,
      "buildingBlockId": 30,
      "buildingBlockType": "FRAGMENT",
      "isRCV": false,
      "properties": {
        "ATTACHMENT_POINTS": "1#SubRS:1:SINGLE:0.2865%0.3959%-0.6387 "
      },
      "uniquefyingPropertyKeys": [],
      "allowedMutationTypes": [
        "DELETE",
        "EXTEND",
        "CHANGEBRANCH",
        "CHANGELINK",
        "ADDLINK",
        "DELETELINK",
        "DELETECHAIN"
      ],
      "vertexType": "MolecularFragment"
    },
    {
      "lstAPs": [
        {
          "id": 72239,
          "atomPositionNumber": 0,
          "atomPositionNumberInMol": 30,
          "apClass": {
            "rule": "SubRM",
            "subClass": 1,
            "bndTyp": "SINGLE"
          },
          "dirVec": {
            "x": 0.2917,
            "y": 0.3929,
            "z": -0.6365
          }
        }
      ],
      "lstSymAPs": [],
      "mol": {
        "atoms": [
          {
            "elSymbol": "C",
            "p3d": {
              "x": 1.7002,
              "y": 0.56,
              "z": -1.2045
            }
          },
          {
            "elSymbol": "C",
            "p3d": {
              "x": 3.564,
              "y": -0.7339,
              "z": -2.2652
            }
          },
          {
            "elSymbol": "C",
            "p3d": {
              "x": 2.9237,
              "y": 1.5034,
              "z": -3.1926
            }
          },
          {
            "elSymbol": "C",
            "p3d": {
              "x": 3.4145,
              "y": 0.0994,
              "z": -3.5498
            }
          },
          {
            "elSymbol": "C",
            "p3d": {
              "x": 1.5576,
              "y": 1.3879,
              "z": -2.5024
            }
          },
          {
            "elSymbol": "C",
            "p3d": {
              "x": 2.203,
              "y": -0.843,
              "z": -1.5702
            }
          },
          {
            "elSymbol": "H",
            "p3d": {
              "x": 4.3384,
              "y": -0.3241,
              "z": -1.6106
            }
          },
          {
            "elSymbol": "H",
            "p3d": {
              "x": 3.6361,
              "y": 2.0524,
              "z": -2.5991
            }
          },
          {
            "elSymbol": "H",
            "p3d": {
              "x": 2.7828,
              "y": -0.3911,
              "z": -4.2916
            }
          },
          {
            "elSymbol": "H",
            "p3d": {
              "x": 0.7737,
              "y": 0.9833,
              "z": -3.15
            }
          },
          {
            "elSymbol": "H",
            "p3d": {
              "x": 1.4815,
              "y": -1.3988,
              "z": -2.1783
            }
          },
          {
            "elSymbol": "H",
            "p3d": {
              "x": 2.3445,
              "y": 1.0609,
              "z": -0.4835
            }
          },
          {
            "elSymbol": "H",
            "p3d": {
              "x": 3.8429,
              "y": -1.7623,
              "z": -2.577
            }
          },
          {
            "elSymbol": "H",
            "p3d": {
              "x": 2.7428,
              "y": 2.0124,
              "z": -4.146
            }
          },
          {
            "elSymbol": "H",
            "p3d": {
              "x": 4.4291,
              "y": 0.2183,
              "z": -3.9628
            }
          },
          {
            "elSymbol": "H",
            "p3d": {
              "x": 1.2819,
              "y": 2.4034,
              "z": -2.1821
            }
          },
          {
            "elSymbol": "H",
            "p3d": {
              "x": 2.3734,
              "y": -1.3662,
              "z": -0.6149
            }
          }
        ],
        "bonds": [
          {
            "atomIds": [
              0,
              11
            ],
            "bo": "SINGLE"
          },
          {
            "atomIds": [
              0,
              4
            ],
            "bo": "SINGLE"
          },
          {
            "atomIds": [
              0,
              5
            ],
            "bo": "SINGLE"
          },
          {
            "atomIds": [
              1,
              6
            ],
            "bo": "SINGLE"
          },
          {
            "atomIds": [
              1,
              12
            ],
            "bo": "SINGLE"
          },
          {
            "atomIds": [
              1,
              3
            ],
            "bo": "SINGLE"
          },
          {
            "atomIds": [
              1,
              5
            ],
            "bo": "SINGLE"
          },
          {
            "atomIds": [
              2,
              7
            ],
            "bo": "SINGLE"
          },
          {
            "atomIds": [
              2,
              13
            ],
            "bo": "SINGLE"
          },
          {
            "atomIds": [
              2,
              4
            ],
            "bo": "SINGLE"
          },
          {
            "atomIds": [
              2,
              3
            ],
            "bo": "SINGLE"
          },
          {
            "atomIds": [
              3,
              8
            ],
            "bo": "SINGLE"
          },
          {
            "atomIds": [
              3,
              14
            ],
            "bo": "SINGLE"
          },
          {
            "atomIds": [
              4,
              9
            ],
            "bo": "SINGLE"
          },
          {
            "atomIds": [
              4,
              15
            ],
            "bo": "SINGLE"
          },
          {
            "atomIds": [
              5,
              10
            ],
            "bo": "SINGLE"
          },
          {
            "atomIds": [
              5,
              16
            ],
            "bo": "SINGLE"
          }
        ]
      },
      "vertexId": 51451,
      "buildingBlockId": 34,
      "buildingBlockType": "FRAGMENT",
      "isRCV": false,
      "properties": {
        "ATTACHMENT_POINTS": "1#SubRM:1:SINGLE:0.2917%0.3929%-0.6365 "
      },
      "uniquefyingPropertyKeys": [],
      "allowedMutationTypes": [
        "DELETE",
        "EXTEND",
        "CHANGEBRANCH",
        "CHANGELINK",
        "ADDLINK",
        "DELETELINK",
        "DELETECHAIN"
      ],
      "vertexType": "MolecularFragment"
    },
    {
      "lstAPs": [
        {
          "id": 72240,
          "atomPositionNumber": 0,
          "atomPositionNumberInMol": 47,
          "apClass": {
            "rule": "SubArS",
            "subClass": 1,
            "bndTyp": "SINGLE"
          },
          "dirVec": {
            "x": 0.2973,
            "y": 0.3873,
            "z": -0.6389
          }
        }
      ],
      "lstSymAPs": [],
      "mol": {
        "atoms": [
          {
            "elSymbol": "C",
            "p3d": {
              "x": 1.6995,
              "y": 0.5593,
              "z": -1.2083
            }
          },
          {
            "elSymbol": "C",
            "p3d": {
              "x": 4.2563,
              "y": 0.8754,
              "z": -2.2592
            }
          },
          {
            "elSymbol": "C",
            "p3d": {
              "x": 2.3334,
              "y": 1.79,
              "z": -1.1338
            }
          },
          {
            "elSymbol": "C",
            "p3d": {
              "x": 2.3422,
              "y": -0.5107,
              "z": -1.8125
            }
          },
          {
            "elSymbol": "C",
            "p3d": {
              "x": 3.612,
              "y": -0.3527,
              "z": -2.3321
            }
          },
          {
            "elSymbol": "C",
            "p3d": {
              "x": 3.6062,
              "y": 1.9513,
              "z": -1.6526
            }
          },
          {
            "elSymbol": "H",
            "p3d": {
              "x": 1.833,
              "y": 2.6461,
              "z": -0.6488
            }
          },
          {
            "elSymbol": "H",
            "p3d": {
              "x": 1.8361,
              "y": -1.4773,
              "z": -1.887
            }
          },
          {
            "elSymbol": "H",
            "p3d": {
              "x": 4.115,
              "y": -1.2043,
              "z": -2.8152
            }
          },
          {
            "elSymbol": "H",
            "p3d": {
              "x": 4.1097,
              "y": 2.9214,
              "z": -1.5842
            }
          },
          {
            "elSymbol": "H",
            "p3d": {
              "x": 5.2498,
              "y": 0.9926,
              "z": -2.665
            }
          }
        ],
        "bonds": [
          {
            "atomIds": [
              0,
              3
            ],
            "bo": "SINGLE"
          },
          {
            "atomIds": [
              3,
              4
            ],
            "bo": "DOUBLE"
          },
          {
            "atomIds": [
              1,
              4
            ],
            "bo": "SINGLE"
          },
          {
            "atomIds": [
              1,
              5
            ],
            "bo": "DOUBLE"
          },
          {
            "atomIds": [
              2,
              5
            ],
            "bo": "SINGLE"
          },
          {
            "atomIds": [
              0,
              2
            ],
            "bo": "DOUBLE"
          },
          {
            "atomIds": [
              4,
              8
            ],
            "bo": "SINGLE"
          },
          {
            "atomIds": [
              5,
              9
            ],
            "bo": "SINGLE"
          },
          {
            "atomIds": [
              1,
              10
            ],
            "bo": "SINGLE"
          },
          {
            "atomIds": [
              2,
              6
            ],
            "bo": "SINGLE"
          },
          {
            "atomIds": [
              3,
              7
            ],
            "bo": "SINGLE"
          }
        ]
      },
      "vertexId": 51468,
      "buildingBlockId": 35,
      "buildingBlockType": "FRAGMENT",
      "isRCV": false,
      "properties": {
        "ATTACHMENT_POINTS": "1#SubArS:1:SINGLE:0.2973%0.3873%-0.6389 "
      },
      "uniquefyingPropertyKeys": [],
      "allowedMutationTypes": [
        "DELETE",
        "EXTEND",
        "CHANGEBRANCH",
        "CHANGELINK",
        "ADDLINK",
        "DELETELINK",
        "DELETECHAIN"
      ],
      "vertexType": "MolecularFragment"
    },
    {
      "lstAPs": [
        {
          "id": 72241,
          "atomPositionNumber": 0,
          "atomPositionNumberInMol": 58,
          "apClass": {
            "rule": "SubRS",
            "subClass": 1,
            "bndTyp": "SINGLE"
          },
          "dirVec": {
            "x": 0.2865,
            "y": 0.3959,
            "z": -0.6387
          }
        }
      ],
      "lstSymAPs": [],
      "mol": {
        "atoms": [
          {
            "elSymbol": "C",
            "p3d": {
              "x": 0.3969,
              "y": -0.0496,
              "z": 0.8235
            }
          },
          {
            "elSymbol": "H",
            "p3d": {
              "x": -0.6146,
              "y": -0.163,
              "z": 1.2402
            }
          },
          {
            "elSymbol": "H",
            "p3d": {
              "x": 0.9335,
              "y": -0.9979,
              "z": 0.8998
            }
          },
          {
            "elSymbol": "H",
            "p3d": {
              "x": 0.9252,
              "y": 0.7237,
              "z": 1.3995
            }
          }
        ],
        "bonds": [
          {
            "atomIds": [
              0,
              1
            ],
            "bo": "SINGLE"
          },
          {
            "atomIds": [
              0,
              2
            ],
            "bo": "SINGLE"
          },
          {
            "atomIds": [
              0,
              3
            ],
            "bo": "SINGLE"
          }
        ]
      },
      "vertexId": 54250,
      "buildingBlockId": 30,
      "buildingBlockType": "FRAGMENT",
      "isRCV": false,
      "properties": {
        "ATTACHMENT_POINTS": "1#SubRS:1:SINGLE:0.2865%0.3959%-0.6387 "
      },
      "uniquefyingPropertyKeys": [],
      "allowedMutationTypes": [
        "DELETE",
        "EXTEND",
        "CHANGEBRANCH",
        "CHANGELINK",
        "ADDLINK",
        "DELETELINK",
        "DELETECHAIN"
      ],
      "vertexType": "MolecularFragment"
    }
  ],
  "gEdges": [
    {
      "srcAPID": 72178,
      "trgAPID": 72181,
      "bondType": "SINGLE"
    },
    {
      "srcAPID": 72180,
      "trgAPID": 72183,
      "bondType": "SINGLE"
    },
    {
      "srcAPID": 72179,
      "trgAPID": 72188,
      "bondType": "SINGLE"
    },
    {
      "srcAPID": 72186,
      "trgAPID": 72237,
      "bondType": "SINGLE"
    },
    {
      "srcAPID": 72184,
      "trgAPID": 72238,
      "bondType": "SINGLE"
    },
    {
      "srcAPID": 72182,
      "trgAPID": 72239,
      "bondType": "SINGLE"
    },
    {
      "srcAPID": 72185,
      "trgAPID": 72240,
      "bondType": "SINGLE"
    },
    {
      "srcAPID": 72187,
      "trgAPID": 72241,
      "bondType": "SINGLE"
    }
  ],
  "gRings": [],
  "symVertices": [
    {
      "symIds": [
        51456,
        54250
      ]
    },
    {
      "symIds": [
        54251,
        51468
      ]
    }
  ]
}

> <SMILES>
[Pt](C#O)(OC([H])([H])[H])([P]1(C(=C(C(=C1C([H])([H])[H])C=2C(=C(C(=C(C2[H])[H])[H])[H])[H])C=3C(=C(C(=C(C3[H])[H])[H])[H])[H])C([H])([H])[H])C4([H])C(C([H])([H])C(C([H])([H])C4([H])[H])([H])[H])([H])[H])SC([H])([H])[H]

$$$$
