M00021180
  CDK     04222216173D

 63 64  0  0  0  0  0  0  0  0999 V2000
   -2.2312    0.0605    0.2239 Pt  0  0  0  0  0  0  0  0  0  0  0  0
   -4.1583    0.1808    0.1600 C   0  0  0  0  0  0  0  0  0  0  0  0
   -5.2993    0.2809    0.1160 O   0  0  0  0  0  0  0  0  0  0  0  0
   -2.1702    2.1021    0.4236 O   0  0  0  0  0  0  0  0  0  0  0  0
   -2.4748    2.4916    1.7400 C   0  0  0  0  0  0  0  0  0  0  0  0
   -2.4712    3.5909    1.7314 H   0  0  0  0  0  0  0  0  0  0  0  0
   -1.7036    2.1150    2.4381 H   0  0  0  0  0  0  0  0  0  0  0  0
   -3.4655    2.1205    2.0300 H   0  0  0  0  0  0  0  0  0  0  0  0
    0.0542   -0.0015    0.2390 P   0  0  0  0  0  0  0  0  0  0  0  0
    0.8383    1.7247    0.0035 C   0  0  0  0  0  0  0  0  0  0  0  0
    2.9886    3.0137   -0.2666 C   0  0  0  0  0  0  0  0  0  0  0  0
    0.9051    3.7616   -1.4851 C   0  0  0  0  0  0  0  0  0  0  0  0
    2.4355    3.6702   -1.5384 C   0  0  0  0  0  0  0  0  0  0  0  0
    0.2601    2.3861   -1.2529 C   0  0  0  0  0  0  0  0  0  0  0  0
    2.3670    1.6235   -0.0431 C   0  0  0  0  0  0  0  0  0  0  0  0
    2.7818    3.6608    0.6075 H   0  0  0  0  0  0  0  0  0  0  0  0
    0.5976    4.4543   -0.6772 H   0  0  0  0  0  0  0  0  0  0  0  0
    2.7468    3.0902   -2.4278 H   0  0  0  0  0  0  0  0  0  0  0  0
    0.4101    1.7574   -2.1591 H   0  0  0  0  0  0  0  0  0  0  0  0
    2.7029    0.9540   -0.8623 H   0  0  0  0  0  0  0  0  0  0  0  0
    0.5336    2.3419    0.8904 H   0  0  0  0  0  0  0  0  0  0  0  0
    4.0887    2.9264   -0.3317 H   0  0  0  0  0  0  0  0  0  0  0  0
    0.5173    4.2001   -2.4234 H   0  0  0  0  0  0  0  0  0  0  0  0
    2.8706    4.6792   -1.6626 H   0  0  0  0  0  0  0  0  0  0  0  0
   -0.8446    2.5297   -1.1377 H   0  0  0  0  0  0  0  0  0  0  0  0
    2.7709    1.2031    0.8992 H   0  0  0  0  0  0  0  0  0  0  0  0
    0.7270   -0.6237    1.7196 N   0  0  0  0  0  0  0  0  0  0  0  0
    1.6945   -0.9614    1.7227 H   0  0  0  0  0  0  0  0  0  0  0  0
    0.0089   -0.7147    3.0305 C   0  0  0  0  0  0  0  0  0  0  0  0
    0.0460    0.6649    3.7211 C   0  0  0  0  0  0  0  0  0  0  0  0
   -1.4431   -1.1829    2.8598 C   0  0  0  0  0  0  0  0  0  0  0  0
    0.7906   -1.7404    3.8806 C   0  0  0  0  0  0  0  0  0  0  0  0
    1.0610    1.0707    3.7647 H   0  0  0  0  0  0  0  0  0  0  0  0
    1.8314   -1.4436    4.0402 H   0  0  0  0  0  0  0  0  0  0  0  0
   -2.1290   -0.3774    2.5430 H   0  0  0  0  0  0  0  0  0  0  0  0
   -1.8454   -1.5696    3.8030 H   0  0  0  0  0  0  0  0  0  0  0  0
    0.3366   -1.8526    4.8715 H   0  0  0  0  0  0  0  0  0  0  0  0
    0.7860   -2.7321    3.4126 H   0  0  0  0  0  0  0  0  0  0  0  0
   -0.5806    1.4057    3.1934 H   0  0  0  0  0  0  0  0  0  0  0  0
   -0.3308    0.6017    4.7465 H   0  0  0  0  0  0  0  0  0  0  0  0
   -1.5432   -2.0061    2.1250 H   0  0  0  0  0  0  0  0  0  0  0  0
    0.7634   -1.0856   -1.1574 C   0  0  0  0  0  0  0  0  0  0  0  0
    1.1733   -3.4469   -1.9355 C   0  0  0  0  0  0  0  0  0  0  0  0
    0.4788   -1.6637   -3.5939 C   0  0  0  0  0  0  0  0  0  0  0  0
    0.4073   -3.1536   -3.2327 C   0  0  0  0  0  0  0  0  0  0  0  0
   -0.0270   -0.7857   -2.4379 C   0  0  0  0  0  0  0  0  0  0  0  0
    0.6738   -2.5680   -0.7774 C   0  0  0  0  0  0  0  0  0  0  0  0
    2.2558   -3.2837   -2.0946 H   0  0  0  0  0  0  0  0  0  0  0  0
    1.5204   -1.3891   -3.8476 H   0  0  0  0  0  0  0  0  0  0  0  0
   -0.6506   -3.4599   -3.1162 H   0  0  0  0  0  0  0  0  0  0  0  0
   -1.1202   -0.9812   -2.2892 H   0  0  0  0  0  0  0  0  0  0  0  0
   -0.3808   -2.8480   -0.5289 H   0  0  0  0  0  0  0  0  0  0  0  0
    1.8363   -0.8096   -1.3144 H   0  0  0  0  0  0  0  0  0  0  0  0
    1.0597   -4.5138   -1.6657 H   0  0  0  0  0  0  0  0  0  0  0  0
   -0.1196   -1.4659   -4.5029 H   0  0  0  0  0  0  0  0  0  0  0  0
    0.8150   -3.7636   -4.0597 H   0  0  0  0  0  0  0  0  0  0  0  0
    0.0669    0.2871   -2.7294 H   0  0  0  0  0  0  0  0  0  0  0  0
    1.2651   -2.7967    0.1294 H   0  0  0  0  0  0  0  0  0  0  0  0
   -2.2878   -1.9855    0.0317 O   0  0  0  0  0  0  0  0  0  0  0  0
   -2.9331   -2.3534   -1.1646 C   0  0  0  0  0  0  0  0  0  0  0  0
   -2.7871   -3.4381   -1.2641 H   0  0  0  0  0  0  0  0  0  0  0  0
   -2.4658   -1.8254   -2.0161 H   0  0  0  0  0  0  0  0  0  0  0  0
   -4.0042   -2.1258   -1.1019 H   0  0  0  0  0  0  0  0  0  0  0  0
  2  3  3  0  0  0  0
  1  2  1  0  0  0  0
  5  6  1  0  0  0  0
  5  7  1  0  0  0  0
  5  8  1  0  0  0  0
  4  5  1  0  0  0  0
  1  4  1  0  0  0  0
  1  9  1  0  0  0  0
 10 21  1  0  0  0  0
 10 14  1  0  0  0  0
 10 15  1  0  0  0  0
 11 16  1  0  0  0  0
 11 22  1  0  0  0  0
 11 13  1  0  0  0  0
 11 15  1  0  0  0  0
 12 17  1  0  0  0  0
 12 23  1  0  0  0  0
 12 14  1  0  0  0  0
 12 13  1  0  0  0  0
 13 18  1  0  0  0  0
 13 24  1  0  0  0  0
 14 19  1  0  0  0  0
 14 25  1  0  0  0  0
 15 20  1  0  0  0  0
 15 26  1  0  0  0  0
  9 10  1  0  0  0  0
 28 27  1  0  0  0  0
  9 27  1  0  0  0  0
 29 30  1  0  0  0  0
 29 31  1  0  0  0  0
 29 32  1  0  0  0  0
 30 33  1  0  0  0  0
 32 34  1  0  0  0  0
 31 35  1  0  0  0  0
 31 36  1  0  0  0  0
 32 37  1  0  0  0  0
 32 38  1  0  0  0  0
 30 39  1  0  0  0  0
 30 40  1  0  0  0  0
 31 41  1  0  0  0  0
 27 29  1  0  0  0  0
 42 53  1  0  0  0  0
 42 46  1  0  0  0  0
 42 47  1  0  0  0  0
 43 48  1  0  0  0  0
 43 54  1  0  0  0  0
 43 45  1  0  0  0  0
 43 47  1  0  0  0  0
 44 49  1  0  0  0  0
 44 55  1  0  0  0  0
 44 46  1  0  0  0  0
 44 45  1  0  0  0  0
 45 50  1  0  0  0  0
 45 56  1  0  0  0  0
 46 51  1  0  0  0  0
 46 57  1  0  0  0  0
 47 52  1  0  0  0  0
 47 58  1  0  0  0  0
  9 42  1  0  0  0  0
 60 61  1  0  0  0  0
 60 62  1  0  0  0  0
 60 63  1  0  0  0  0
 59 60  1  0  0  0  0
  1 59  1  0  0  0  0
M  END
> <PM6_ENERGY>
-699.955

> <UID>
BIOQLHADIKUFHB-ZXPHYFRNNA-N

> <FITNESS>
1.14623

> <GCODE>
22541

> <GraphENC>
22541 72_1_0,80_65_1,101_4_1,86_65_1,70807_35_1,69878_5_1,69884_35_1,557672_34_1, 72_0_80_0_SINGLE_Xlig:0_Xlig:1,72_2_101_3_SINGLE_scaff:0_MMonoAminoPhosphine:1,72_1_86_0_SINGLE_Xlig:0_Xlig:1,101_2_70807_0_SINGLE_LMonoAminoPhosphineSubR:0_SubRM:1,101_0_69878_0_SINGLE_LMonoAminoPhosphineN:0_LAminoPhosphineNH:1,101_1_69884_0_SINGLE_LMonoAminoPhosphineSubR:0_SubRM:1,69878_1_557672_0_SINGLE_AminoPhosphineSubNL:0_SubRL:1, SymmetricSet [symIds=[70807, 69884]] 

> <GraphJson>
{
  "graphId": 22541,
  "gVertices": [
    {
      "lstAPs": [
        {
          "id": 619894,
          "atomPositionNumber": 0,
          "atomPositionNumberInMol": 0,
          "apClass": {
            "rule": "Xlig",
            "subClass": 0,
            "bndTyp": "SINGLE"
          },
          "dirVec": {
            "x": -2.3339,
            "y": -0.0087,
            "z": 0.8172
          }
        },
        {
          "id": 619895,
          "atomPositionNumber": 0,
          "atomPositionNumberInMol": 0,
          "apClass": {
            "rule": "Xlig",
            "subClass": 0,
            "bndTyp": "SINGLE"
          },
          "dirVec": {
            "x": 2.336,
            "y": -5.0E-4,
            "z": 0.829
          }
        },
        {
          "id": 619896,
          "atomPositionNumber": 0,
          "atomPositionNumberInMol": 0,
          "apClass": {
            "rule": "scaff",
            "subClass": 0,
            "bndTyp": "SINGLE"
          },
          "dirVec": {
            "x": -0.0095,
            "y": 0.0046,
            "z": -1.7113
          }
        }
      ],
      "lstSymAPs": [
        {
          "symIds": [
            0,
            1
          ]
        }
      ],
      "mol": {
        "atoms": [
          {
            "elSymbol": "Pt",
            "p3d": {
              "x": -0.0098,
              "y": 0.0049,
              "z": 0.6289
            }
          },
          {
            "elSymbol": "C",
            "p3d": {
              "x": -6.0E-4,
              "y": 0.0016,
              "z": 2.5609
            }
          },
          {
            "elSymbol": "O",
            "p3d": {
              "x": 0.0025,
              "y": -0.0041,
              "z": 3.6974
            }
          },
          {
            "elSymbol": "Du",
            "p3d": {
              "x": -0.007,
              "y": 1.0013,
              "z": 0.6372
            }
          },
          {
            "elSymbol": "Du",
            "p3d": {
              "x": -0.0014,
              "y": 0.9902,
              "z": 2.5698
            }
          }
        ],
        "bonds": [
          {
            "atomIds": [
              1,
              2
            ],
            "bo": "TRIPLE"
          },
          {
            "atomIds": [
              0,
              1
            ],
            "bo": "SINGLE"
          },
          {
            "atomIds": [
              3,
              0
            ],
            "bo": "SINGLE"
          },
          {
            "atomIds": [
              4,
              1
            ],
            "bo": "SINGLE"
          }
        ]
      },
      "vertexId": 72,
      "buildingBlockId": 0,
      "buildingBlockType": "SCAFFOLD",
      "isRCV": false,
      "properties": {
        "ATTACHMENT_POINTS": "1#Xlig:0:SINGLE:-2.3339%-0.0087%0.8172,Xlig:0:SINGLE:2.3360%-0.0005%0.8290,scaff:0:SINGLE:-0.0095%0.0046%-1.7113 "
      },
      "uniquefyingPropertyKeys": [],
      "allowedMutationTypes": [
        "DELETE",
        "EXTEND",
        "CHANGEBRANCH",
        "CHANGELINK",
        "ADDLINK",
        "DELETELINK",
        "DELETECHAIN"
      ],
      "vertexType": "MolecularFragment"
    },
    {
      "lstAPs": [
        {
          "id": 619897,
          "atomPositionNumber": 0,
          "atomPositionNumberInMol": 5,
          "apClass": {
            "rule": "Xlig",
            "subClass": 1,
            "bndTyp": "SINGLE"
          },
          "dirVec": {
            "x": -0.1753,
            "y": 0.0948,
            "z": -0.4464
          }
        }
      ],
      "lstSymAPs": [],
      "mol": {
        "atoms": [
          {
            "elSymbol": "O",
            "p3d": {
              "x": -0.3534,
              "y": 2.1044,
              "z": -0.7339
            }
          },
          {
            "elSymbol": "C",
            "p3d": {
              "x": -0.5345,
              "y": 2.7646,
              "z": 0.4801
            }
          },
          {
            "elSymbol": "H",
            "p3d": {
              "x": -0.3728,
              "y": 3.8337,
              "z": 0.2724
            }
          },
          {
            "elSymbol": "H",
            "p3d": {
              "x": 0.1816,
              "y": 2.4161,
              "z": 1.2384
            }
          },
          {
            "elSymbol": "H",
            "p3d": {
              "x": -1.553,
              "y": 2.6149,
              "z": 0.8489
            }
          }
        ],
        "bonds": [
          {
            "atomIds": [
              1,
              2
            ],
            "bo": "SINGLE"
          },
          {
            "atomIds": [
              1,
              3
            ],
            "bo": "SINGLE"
          },
          {
            "atomIds": [
              1,
              4
            ],
            "bo": "SINGLE"
          },
          {
            "atomIds": [
              0,
              1
            ],
            "bo": "SINGLE"
          }
        ]
      },
      "vertexId": 80,
      "buildingBlockId": 64,
      "buildingBlockType": "FRAGMENT",
      "isRCV": false,
      "properties": {
        "ATTACHMENT_POINTS": "1#Xlig:1:SINGLE:-0.1753%0.0948%-0.4464 "
      },
      "uniquefyingPropertyKeys": [],
      "allowedMutationTypes": [
        "DELETE",
        "EXTEND",
        "CHANGEBRANCH",
        "CHANGELINK",
        "ADDLINK",
        "DELETELINK",
        "DELETECHAIN"
      ],
      "vertexType": "MolecularFragment"
    },
    {
      "lstAPs": [
        {
          "id": 619898,
          "atomPositionNumber": 0,
          "atomPositionNumberInMol": 10,
          "apClass": {
            "rule": "LMonoAminoPhosphineN",
            "subClass": 0,
            "bndTyp": "SINGLE"
          },
          "dirVec": {
            "x": 3.1471,
            "y": 10.0719,
            "z": 6.8843
          }
        },
        {
          "id": 619899,
          "atomPositionNumber": 0,
          "atomPositionNumberInMol": 10,
          "apClass": {
            "rule": "LMonoAminoPhosphineSubR",
            "subClass": 0,
            "bndTyp": "SINGLE"
          },
          "dirVec": {
            "x": 0.3842,
            "y": 9.4902,
            "z": 6.7015
          }
        },
        {
          "id": 619900,
          "atomPositionNumber": 0,
          "atomPositionNumberInMol": 10,
          "apClass": {
            "rule": "LMonoAminoPhosphineSubR",
            "subClass": 0,
            "bndTyp": "SINGLE"
          },
          "dirVec": {
            "x": 2.2197,
            "y": 7.8057,
            "z": 8.2724
          }
        },
        {
          "id": 619901,
          "atomPositionNumber": 0,
          "atomPositionNumberInMol": 10,
          "apClass": {
            "rule": "MMonoAminoPhosphine",
            "subClass": 1,
            "bndTyp": "SINGLE"
          },
          "dirVec": {
            "x": 2.6023,
            "y": 7.6121,
            "z": 4.8117
          }
        }
      ],
      "lstSymAPs": [
        {
          "symIds": [
            1,
            2
          ]
        }
      ],
      "mol": {
        "atoms": [
          {
            "elSymbol": "P",
            "p3d": {
              "x": 2.1045,
              "y": 8.7901,
              "z": 6.7495
            }
          }
        ],
        "bonds": []
      },
      "vertexId": 101,
      "buildingBlockId": 3,
      "buildingBlockType": "FRAGMENT",
      "isRCV": false,
      "properties": {
        "ATTACHMENT_POINTS": "1#LMonoAminoPhosphineN:0:SINGLE:3.1471%10.0719%6.8843,LMonoAminoPhosphineSubR:0:SINGLE:0.3842%9.4902%6.7015,LMonoAminoPhosphineSubR:0:SINGLE:2.2197%7.8057%8.2724,MMonoAminoPhosphine:1:SINGLE:2.6023%7.6121%4.8117 "
      },
      "uniquefyingPropertyKeys": [],
      "allowedMutationTypes": [
        "DELETE",
        "EXTEND",
        "CHANGEBRANCH",
        "CHANGELINK",
        "ADDLINK",
        "DELETELINK",
        "DELETECHAIN"
      ],
      "vertexType": "MolecularFragment"
    },
    {
      "lstAPs": [
        {
          "id": 619902,
          "atomPositionNumber": 0,
          "atomPositionNumberInMol": 60,
          "apClass": {
            "rule": "Xlig",
            "subClass": 1,
            "bndTyp": "SINGLE"
          },
          "dirVec": {
            "x": -0.1753,
            "y": 0.0948,
            "z": -0.4464
          }
        }
      ],
      "lstSymAPs": [],
      "mol": {
        "atoms": [
          {
            "elSymbol": "O",
            "p3d": {
              "x": -0.3534,
              "y": 2.1044,
              "z": -0.7339
            }
          },
          {
            "elSymbol": "C",
            "p3d": {
              "x": -0.5345,
              "y": 2.7646,
              "z": 0.4801
            }
          },
          {
            "elSymbol": "H",
            "p3d": {
              "x": -0.3728,
              "y": 3.8337,
              "z": 0.2724
            }
          },
          {
            "elSymbol": "H",
            "p3d": {
              "x": 0.1816,
              "y": 2.4161,
              "z": 1.2384
            }
          },
          {
            "elSymbol": "H",
            "p3d": {
              "x": -1.553,
              "y": 2.6149,
              "z": 0.8489
            }
          }
        ],
        "bonds": [
          {
            "atomIds": [
              1,
              2
            ],
            "bo": "SINGLE"
          },
          {
            "atomIds": [
              1,
              3
            ],
            "bo": "SINGLE"
          },
          {
            "atomIds": [
              1,
              4
            ],
            "bo": "SINGLE"
          },
          {
            "atomIds": [
              0,
              1
            ],
            "bo": "SINGLE"
          }
        ]
      },
      "vertexId": 86,
      "buildingBlockId": 64,
      "buildingBlockType": "FRAGMENT",
      "isRCV": false,
      "properties": {
        "ATTACHMENT_POINTS": "1#Xlig:1:SINGLE:-0.1753%0.0948%-0.4464 "
      },
      "uniquefyingPropertyKeys": [],
      "allowedMutationTypes": [
        "DELETE",
        "EXTEND",
        "CHANGEBRANCH",
        "CHANGELINK",
        "ADDLINK",
        "DELETELINK",
        "DELETECHAIN"
      ],
      "vertexType": "MolecularFragment"
    },
    {
      "lstAPs": [
        {
          "id": 619903,
          "atomPositionNumber": 0,
          "atomPositionNumberInMol": 11,
          "apClass": {
            "rule": "SubRM",
            "subClass": 1,
            "bndTyp": "SINGLE"
          },
          "dirVec": {
            "x": 0.2917,
            "y": 0.3929,
            "z": -0.6365
          }
        }
      ],
      "lstSymAPs": [],
      "mol": {
        "atoms": [
          {
            "elSymbol": "C",
            "p3d": {
              "x": 1.7002,
              "y": 0.56,
              "z": -1.2045
            }
          },
          {
            "elSymbol": "C",
            "p3d": {
              "x": 3.564,
              "y": -0.7339,
              "z": -2.2652
            }
          },
          {
            "elSymbol": "C",
            "p3d": {
              "x": 2.9237,
              "y": 1.5034,
              "z": -3.1926
            }
          },
          {
            "elSymbol": "C",
            "p3d": {
              "x": 3.4145,
              "y": 0.0994,
              "z": -3.5498
            }
          },
          {
            "elSymbol": "C",
            "p3d": {
              "x": 1.5576,
              "y": 1.3879,
              "z": -2.5024
            }
          },
          {
            "elSymbol": "C",
            "p3d": {
              "x": 2.203,
              "y": -0.843,
              "z": -1.5702
            }
          },
          {
            "elSymbol": "H",
            "p3d": {
              "x": 4.3384,
              "y": -0.3241,
              "z": -1.6106
            }
          },
          {
            "elSymbol": "H",
            "p3d": {
              "x": 3.6361,
              "y": 2.0524,
              "z": -2.5991
            }
          },
          {
            "elSymbol": "H",
            "p3d": {
              "x": 2.7828,
              "y": -0.3911,
              "z": -4.2916
            }
          },
          {
            "elSymbol": "H",
            "p3d": {
              "x": 0.7737,
              "y": 0.9833,
              "z": -3.15
            }
          },
          {
            "elSymbol": "H",
            "p3d": {
              "x": 1.4815,
              "y": -1.3988,
              "z": -2.1783
            }
          },
          {
            "elSymbol": "H",
            "p3d": {
              "x": 2.3445,
              "y": 1.0609,
              "z": -0.4835
            }
          },
          {
            "elSymbol": "H",
            "p3d": {
              "x": 3.8429,
              "y": -1.7623,
              "z": -2.577
            }
          },
          {
            "elSymbol": "H",
            "p3d": {
              "x": 2.7428,
              "y": 2.0124,
              "z": -4.146
            }
          },
          {
            "elSymbol": "H",
            "p3d": {
              "x": 4.4291,
              "y": 0.2183,
              "z": -3.9628
            }
          },
          {
            "elSymbol": "H",
            "p3d": {
              "x": 1.2819,
              "y": 2.4034,
              "z": -2.1821
            }
          },
          {
            "elSymbol": "H",
            "p3d": {
              "x": 2.3734,
              "y": -1.3662,
              "z": -0.6149
            }
          }
        ],
        "bonds": [
          {
            "atomIds": [
              0,
              11
            ],
            "bo": "SINGLE"
          },
          {
            "atomIds": [
              0,
              4
            ],
            "bo": "SINGLE"
          },
          {
            "atomIds": [
              0,
              5
            ],
            "bo": "SINGLE"
          },
          {
            "atomIds": [
              1,
              6
            ],
            "bo": "SINGLE"
          },
          {
            "atomIds": [
              1,
              12
            ],
            "bo": "SINGLE"
          },
          {
            "atomIds": [
              1,
              3
            ],
            "bo": "SINGLE"
          },
          {
            "atomIds": [
              1,
              5
            ],
            "bo": "SINGLE"
          },
          {
            "atomIds": [
              2,
              7
            ],
            "bo": "SINGLE"
          },
          {
            "atomIds": [
              2,
              13
            ],
            "bo": "SINGLE"
          },
          {
            "atomIds": [
              2,
              4
            ],
            "bo": "SINGLE"
          },
          {
            "atomIds": [
              2,
              3
            ],
            "bo": "SINGLE"
          },
          {
            "atomIds": [
              3,
              8
            ],
            "bo": "SINGLE"
          },
          {
            "atomIds": [
              3,
              14
            ],
            "bo": "SINGLE"
          },
          {
            "atomIds": [
              4,
              9
            ],
            "bo": "SINGLE"
          },
          {
            "atomIds": [
              4,
              15
            ],
            "bo": "SINGLE"
          },
          {
            "atomIds": [
              5,
              10
            ],
            "bo": "SINGLE"
          },
          {
            "atomIds": [
              5,
              16
            ],
            "bo": "SINGLE"
          }
        ]
      },
      "vertexId": 70807,
      "buildingBlockId": 34,
      "buildingBlockType": "FRAGMENT",
      "isRCV": false,
      "properties": {
        "ATTACHMENT_POINTS": "1#SubRM:1:SINGLE:0.2917%0.3929%-0.6365 "
      },
      "uniquefyingPropertyKeys": [],
      "allowedMutationTypes": [
        "DELETE",
        "EXTEND",
        "CHANGEBRANCH",
        "CHANGELINK",
        "ADDLINK",
        "DELETELINK",
        "DELETECHAIN"
      ],
      "vertexType": "MolecularFragment"
    },
    {
      "lstAPs": [
        {
          "id": 619904,
          "atomPositionNumber": 0,
          "atomPositionNumberInMol": 28,
          "apClass": {
            "rule": "LAminoPhosphineNH",
            "subClass": 1,
            "bndTyp": "SINGLE"
          },
          "dirVec": {
            "x": 6.5561,
            "y": 10.0497,
            "z": 0.7834
          }
        },
        {
          "id": 619905,
          "atomPositionNumber": 0,
          "atomPositionNumberInMol": 28,
          "apClass": {
            "rule": "AminoPhosphineSubNL",
            "subClass": 0,
            "bndTyp": "SINGLE"
          },
          "dirVec": {
            "x": 5.3575,
            "y": 10.9907,
            "z": -1.5461
          }
        }
      ],
      "lstSymAPs": [],
      "mol": {
        "atoms": [
          {
            "elSymbol": "N",
            "p3d": {
              "x": 5.9053,
              "y": 11.1997,
              "z": -0.1783
            }
          },
          {
            "elSymbol": "H",
            "p3d": {
              "x": 6.5049,
              "y": 12.0079,
              "z": -0.2127
            }
          }
        ],
        "bonds": [
          {
            "atomIds": [
              1,
              0
            ],
            "bo": "SINGLE"
          }
        ]
      },
      "vertexId": 69878,
      "buildingBlockId": 4,
      "buildingBlockType": "FRAGMENT",
      "isRCV": false,
      "properties": {
        "ATTACHMENT_POINTS": "1#LAminoPhosphineNH:1:SINGLE:6.5561%10.0497%0.7834,AminoPhosphineSubNL:0:SINGLE:5.3575%10.9907%-1.5461 "
      },
      "uniquefyingPropertyKeys": [],
      "allowedMutationTypes": [
        "DELETE",
        "EXTEND",
        "CHANGEBRANCH",
        "CHANGELINK",
        "ADDLINK",
        "DELETELINK",
        "DELETECHAIN"
      ],
      "vertexType": "MolecularFragment"
    },
    {
      "lstAPs": [
        {
          "id": 619906,
          "atomPositionNumber": 0,
          "atomPositionNumberInMol": 43,
          "apClass": {
            "rule": "SubRM",
            "subClass": 1,
            "bndTyp": "SINGLE"
          },
          "dirVec": {
            "x": 0.2917,
            "y": 0.3929,
            "z": -0.6365
          }
        }
      ],
      "lstSymAPs": [],
      "mol": {
        "atoms": [
          {
            "elSymbol": "C",
            "p3d": {
              "x": 1.7002,
              "y": 0.56,
              "z": -1.2045
            }
          },
          {
            "elSymbol": "C",
            "p3d": {
              "x": 3.564,
              "y": -0.7339,
              "z": -2.2652
            }
          },
          {
            "elSymbol": "C",
            "p3d": {
              "x": 2.9237,
              "y": 1.5034,
              "z": -3.1926
            }
          },
          {
            "elSymbol": "C",
            "p3d": {
              "x": 3.4145,
              "y": 0.0994,
              "z": -3.5498
            }
          },
          {
            "elSymbol": "C",
            "p3d": {
              "x": 1.5576,
              "y": 1.3879,
              "z": -2.5024
            }
          },
          {
            "elSymbol": "C",
            "p3d": {
              "x": 2.203,
              "y": -0.843,
              "z": -1.5702
            }
          },
          {
            "elSymbol": "H",
            "p3d": {
              "x": 4.3384,
              "y": -0.3241,
              "z": -1.6106
            }
          },
          {
            "elSymbol": "H",
            "p3d": {
              "x": 3.6361,
              "y": 2.0524,
              "z": -2.5991
            }
          },
          {
            "elSymbol": "H",
            "p3d": {
              "x": 2.7828,
              "y": -0.3911,
              "z": -4.2916
            }
          },
          {
            "elSymbol": "H",
            "p3d": {
              "x": 0.7737,
              "y": 0.9833,
              "z": -3.15
            }
          },
          {
            "elSymbol": "H",
            "p3d": {
              "x": 1.4815,
              "y": -1.3988,
              "z": -2.1783
            }
          },
          {
            "elSymbol": "H",
            "p3d": {
              "x": 2.3445,
              "y": 1.0609,
              "z": -0.4835
            }
          },
          {
            "elSymbol": "H",
            "p3d": {
              "x": 3.8429,
              "y": -1.7623,
              "z": -2.577
            }
          },
          {
            "elSymbol": "H",
            "p3d": {
              "x": 2.7428,
              "y": 2.0124,
              "z": -4.146
            }
          },
          {
            "elSymbol": "H",
            "p3d": {
              "x": 4.4291,
              "y": 0.2183,
              "z": -3.9628
            }
          },
          {
            "elSymbol": "H",
            "p3d": {
              "x": 1.2819,
              "y": 2.4034,
              "z": -2.1821
            }
          },
          {
            "elSymbol": "H",
            "p3d": {
              "x": 2.3734,
              "y": -1.3662,
              "z": -0.6149
            }
          }
        ],
        "bonds": [
          {
            "atomIds": [
              0,
              11
            ],
            "bo": "SINGLE"
          },
          {
            "atomIds": [
              0,
              4
            ],
            "bo": "SINGLE"
          },
          {
            "atomIds": [
              0,
              5
            ],
            "bo": "SINGLE"
          },
          {
            "atomIds": [
              1,
              6
            ],
            "bo": "SINGLE"
          },
          {
            "atomIds": [
              1,
              12
            ],
            "bo": "SINGLE"
          },
          {
            "atomIds": [
              1,
              3
            ],
            "bo": "SINGLE"
          },
          {
            "atomIds": [
              1,
              5
            ],
            "bo": "SINGLE"
          },
          {
            "atomIds": [
              2,
              7
            ],
            "bo": "SINGLE"
          },
          {
            "atomIds": [
              2,
              13
            ],
            "bo": "SINGLE"
          },
          {
            "atomIds": [
              2,
              4
            ],
            "bo": "SINGLE"
          },
          {
            "atomIds": [
              2,
              3
            ],
            "bo": "SINGLE"
          },
          {
            "atomIds": [
              3,
              8
            ],
            "bo": "SINGLE"
          },
          {
            "atomIds": [
              3,
              14
            ],
            "bo": "SINGLE"
          },
          {
            "atomIds": [
              4,
              9
            ],
            "bo": "SINGLE"
          },
          {
            "atomIds": [
              4,
              15
            ],
            "bo": "SINGLE"
          },
          {
            "atomIds": [
              5,
              10
            ],
            "bo": "SINGLE"
          },
          {
            "atomIds": [
              5,
              16
            ],
            "bo": "SINGLE"
          }
        ]
      },
      "vertexId": 69884,
      "buildingBlockId": 34,
      "buildingBlockType": "FRAGMENT",
      "isRCV": false,
      "properties": {
        "ATTACHMENT_POINTS": "1#SubRM:1:SINGLE:0.2917%0.3929%-0.6365 "
      },
      "uniquefyingPropertyKeys": [],
      "allowedMutationTypes": [
        "DELETE",
        "EXTEND",
        "CHANGEBRANCH",
        "CHANGELINK",
        "ADDLINK",
        "DELETELINK",
        "DELETECHAIN"
      ],
      "vertexType": "MolecularFragment"
    },
    {
      "lstAPs": [
        {
          "id": 619949,
          "atomPositionNumber": 0,
          "atomPositionNumberInMol": 30,
          "apClass": {
            "rule": "SubRL",
            "subClass": 1,
            "bndTyp": "SINGLE"
          },
          "dirVec": {
            "x": 0.2857,
            "y": 0.39,
            "z": -0.6426
          }
        }
      ],
      "lstSymAPs": [],
      "mol": {
        "atoms": [
          {
            "elSymbol": "C",
            "p3d": {
              "x": 0.3842,
              "y": -0.0523,
              "z": 0.8329
            }
          },
          {
            "elSymbol": "C",
            "p3d": {
              "x": -0.6709,
              "y": 0.6882,
              "z": 1.6615
            }
          },
          {
            "elSymbol": "C",
            "p3d": {
              "x": 0.1554,
              "y": -1.558,
              "z": 0.9277
            }
          },
          {
            "elSymbol": "C",
            "p3d": {
              "x": 1.7886,
              "y": 0.2826,
              "z": 1.3761
            }
          },
          {
            "elSymbol": "H",
            "p3d": {
              "x": -0.5899,
              "y": 0.3841,
              "z": 2.6969
            }
          },
          {
            "elSymbol": "H",
            "p3d": {
              "x": 1.8617,
              "y": -0.0274,
              "z": 2.4067
            }
          },
          {
            "elSymbol": "H",
            "p3d": {
              "x": 0.2289,
              "y": -1.8635,
              "z": 1.9737
            }
          },
          {
            "elSymbol": "H",
            "p3d": {
              "x": 0.8983,
              "y": -2.0943,
              "z": 0.3332
            }
          },
          {
            "elSymbol": "H",
            "p3d": {
              "x": 2.5395,
              "y": -0.2409,
              "z": 0.7751
            }
          },
          {
            "elSymbol": "H",
            "p3d": {
              "x": 1.9553,
              "y": 1.3543,
              "z": 1.294
            }
          },
          {
            "elSymbol": "H",
            "p3d": {
              "x": -0.4937,
              "y": 1.7723,
              "z": 1.5856
            }
          },
          {
            "elSymbol": "H",
            "p3d": {
              "x": -1.6541,
              "y": 0.4601,
              "z": 1.2602
            }
          },
          {
            "elSymbol": "H",
            "p3d": {
              "x": -0.8514,
              "y": -1.792,
              "z": 0.5518
            }
          }
        ],
        "bonds": [
          {
            "atomIds": [
              0,
              1
            ],
            "bo": "SINGLE"
          },
          {
            "atomIds": [
              0,
              2
            ],
            "bo": "SINGLE"
          },
          {
            "atomIds": [
              0,
              3
            ],
            "bo": "SINGLE"
          },
          {
            "atomIds": [
              1,
              4
            ],
            "bo": "SINGLE"
          },
          {
            "atomIds": [
              3,
              5
            ],
            "bo": "SINGLE"
          },
          {
            "atomIds": [
              2,
              6
            ],
            "bo": "SINGLE"
          },
          {
            "atomIds": [
              2,
              7
            ],
            "bo": "SINGLE"
          },
          {
            "atomIds": [
              3,
              8
            ],
            "bo": "SINGLE"
          },
          {
            "atomIds": [
              3,
              9
            ],
            "bo": "SINGLE"
          },
          {
            "atomIds": [
              1,
              10
            ],
            "bo": "SINGLE"
          },
          {
            "atomIds": [
              1,
              11
            ],
            "bo": "SINGLE"
          },
          {
            "atomIds": [
              2,
              12
            ],
            "bo": "SINGLE"
          }
        ]
      },
      "vertexId": 557672,
      "buildingBlockId": 33,
      "buildingBlockType": "FRAGMENT",
      "isRCV": false,
      "properties": {
        "ATTACHMENT_POINTS": "1#SubRL:1:SINGLE:0.2857%0.3900%-0.6426 "
      },
      "uniquefyingPropertyKeys": [],
      "allowedMutationTypes": [
        "DELETE",
        "EXTEND",
        "CHANGEBRANCH",
        "CHANGELINK",
        "ADDLINK",
        "DELETELINK",
        "DELETECHAIN"
      ],
      "vertexType": "MolecularFragment"
    }
  ],
  "gEdges": [
    {
      "srcAPID": 619894,
      "trgAPID": 619897,
      "bondType": "SINGLE"
    },
    {
      "srcAPID": 619896,
      "trgAPID": 619901,
      "bondType": "SINGLE"
    },
    {
      "srcAPID": 619895,
      "trgAPID": 619902,
      "bondType": "SINGLE"
    },
    {
      "srcAPID": 619900,
      "trgAPID": 619903,
      "bondType": "SINGLE"
    },
    {
      "srcAPID": 619898,
      "trgAPID": 619904,
      "bondType": "SINGLE"
    },
    {
      "srcAPID": 619899,
      "trgAPID": 619906,
      "bondType": "SINGLE"
    },
    {
      "srcAPID": 619905,
      "trgAPID": 619949,
      "bondType": "SINGLE"
    }
  ],
  "gRings": [],
  "symVertices": [
    {
      "symIds": [
        70807,
        69884
      ]
    }
  ]
}

> <SMILES>
[Pt](C#O)(OC([H])([H])[H])([P](C1([H])C(C([H])([H])C(C([H])([H])C1([H])[H])([H])[H])([H])[H])(N([H])C(C([H])([H])[H])(C([H])([H])[H])C([H])([H])[H])C2([H])C(C([H])([H])C(C([H])([H])C2([H])[H])([H])[H])([H])[H])OC([H])([H])[H]

$$$$
