M00018472
  CDK     04222215173D

 52 54  0  0  0  0  0  0  0  0999 V2000
   -2.4967   -0.7125    0.3134 Pt  0  0  0  0  0  0  0  0  0  0  0  0
   -4.4604   -0.5744    0.4186 C   0  0  0  0  0  0  0  0  0  0  0  0
   -5.5935   -0.4831    0.4796 O   0  0  0  0  0  0  0  0  0  0  0  0
   -2.2567    1.2558    0.3272 C   0  0  0  0  0  0  0  0  0  0  0  0
   -2.1434    2.4060    0.3305 N   0  0  0  0  0  0  0  0  0  0  0  0
   -0.2508   -0.6614    0.1944 P   0  0  0  0  0  0  0  0  0  0  0  0
    0.5490    0.1152    1.4281 O   0  0  0  0  0  0  0  0  0  0  0  0
   -0.2869    0.4746    2.5140 C   0  0  0  0  0  0  0  0  0  0  0  0
   -1.6801    1.2574    4.7656 C   0  0  0  0  0  0  0  0  0  0  0  0
   -0.0449    1.7619    3.0338 C   0  0  0  0  0  0  0  0  0  0  0  0
   -1.2100   -0.4185    3.0717 C   0  0  0  0  0  0  0  0  0  0  0  0
   -1.9078   -0.0071    4.2126 C   0  0  0  0  0  0  0  0  0  0  0  0
   -0.7600    2.1328    4.1827 C   0  0  0  0  0  0  0  0  0  0  0  0
   -1.3837   -1.4256    2.6759 H   0  0  0  0  0  0  0  0  0  0  0  0
   -2.6293   -0.6828    4.6727 H   0  0  0  0  0  0  0  0  0  0  0  0
   -0.6010    3.1210    4.6155 H   0  0  0  0  0  0  0  0  0  0  0  0
   -2.2279    1.5652    5.6563 H   0  0  0  0  0  0  0  0  0  0  0  0
    0.9005    2.6950    2.3637 C   0  0  0  0  0  0  0  0  0  0  0  0
    0.3580    3.3222    1.6335 H   0  0  0  0  0  0  0  0  0  0  0  0
    1.6836    2.1589    1.8046 H   0  0  0  0  0  0  0  0  0  0  0  0
    1.4015    3.3690    3.0697 H   0  0  0  0  0  0  0  0  0  0  0  0
    0.4425   -2.1620    0.2020 O   0  0  0  0  0  0  0  0  0  0  0  0
    1.8481   -2.2088    0.0419 C   0  0  0  0  0  0  0  0  0  0  0  0
    4.5692   -2.5768   -0.2196 C   0  0  0  0  0  0  0  0  0  0  0  0
    2.3475   -2.5933   -1.2180 C   0  0  0  0  0  0  0  0  0  0  0  0
    2.6608   -2.0104    1.1612 C   0  0  0  0  0  0  0  0  0  0  0  0
    4.0377   -2.1980    1.0178 C   0  0  0  0  0  0  0  0  0  0  0  0
    3.7349   -2.7733   -1.3239 C   0  0  0  0  0  0  0  0  0  0  0  0
    2.2291   -1.7169    2.1186 H   0  0  0  0  0  0  0  0  0  0  0  0
    4.6948   -2.0506    1.8737 H   0  0  0  0  0  0  0  0  0  0  0  0
    4.1649   -3.0710   -2.2800 H   0  0  0  0  0  0  0  0  0  0  0  0
    5.6442   -2.7219   -0.3245 H   0  0  0  0  0  0  0  0  0  0  0  0
    1.4384   -2.7916   -2.3794 C   0  0  0  0  0  0  0  0  0  0  0  0
    1.9047   -3.3657   -3.1903 H   0  0  0  0  0  0  0  0  0  0  0  0
    1.1255   -1.8224   -2.8028 H   0  0  0  0  0  0  0  0  0  0  0  0
    0.5232   -3.3321   -2.0862 H   0  0  0  0  0  0  0  0  0  0  0  0
    0.4043    0.0594   -1.1527 O   0  0  0  0  0  0  0  0  0  0  0  0
   -0.5641    0.4697   -2.1027 C   0  0  0  0  0  0  0  0  0  0  0  0
   -2.2318    1.3362   -4.1253 C   0  0  0  0  0  0  0  0  0  0  0  0
   -0.3680    1.7658   -2.6188 C   0  0  0  0  0  0  0  0  0  0  0  0
   -1.5722   -0.3927   -2.5525 C   0  0  0  0  0  0  0  0  0  0  0  0
   -2.4088    0.0608   -3.5776 C   0  0  0  0  0  0  0  0  0  0  0  0
   -1.2242    2.1798   -3.6512 C   0  0  0  0  0  0  0  0  0  0  0  0
   -1.7124   -1.4053   -2.1569 H   0  0  0  0  0  0  0  0  0  0  0  0
   -3.2003   -0.5888   -3.9518 H   0  0  0  0  0  0  0  0  0  0  0  0
   -1.1050    3.1768   -4.0767 H   0  0  0  0  0  0  0  0  0  0  0  0
   -2.8889    1.6774   -4.9254 H   0  0  0  0  0  0  0  0  0  0  0  0
    0.6788    2.6639   -2.0616 C   0  0  0  0  0  0  0  0  0  0  0  0
    1.5168    2.0998   -1.6222 H   0  0  0  0  0  0  0  0  0  0  0  0
    0.2531    3.2859   -1.2538 H   0  0  0  0  0  0  0  0  0  0  0  0
    1.0981    3.3432   -2.8143 H   0  0  0  0  0  0  0  0  0  0  0  0
   -3.0004   -3.0068    0.2889 Cl  0  0  0  0  0  0  0  0  0  0  0  0
  2  3  3  0  0  0  0
  1  2  1  0  0  0  0
  4  5  3  0  0  0  0
  1  4  1  0  0  0  0
  1  6  1  0  0  0  0
  6  7  1  0  0  0  0
  8 11  1  0  0  0  0
 11 12  2  0  0  0  0
  9 12  1  0  0  0  0
  9 13  2  0  0  0  0
 10 13  1  0  0  0  0
  8 10  2  0  0  0  0
 12 15  1  0  0  0  0
 13 16  1  0  0  0  0
  9 17  1  0  0  0  0
 11 14  1  0  0  0  0
 18 19  1  0  0  0  0
 18 20  1  0  0  0  0
 18 21  1  0  0  0  0
 10 18  1  0  0  0  0
  7  8  1  0  0  0  0
  6 22  1  0  0  0  0
 23 26  1  0  0  0  0
 26 27  2  0  0  0  0
 24 27  1  0  0  0  0
 24 28  2  0  0  0  0
 25 28  1  0  0  0  0
 23 25  2  0  0  0  0
 27 30  1  0  0  0  0
 28 31  1  0  0  0  0
 24 32  1  0  0  0  0
 26 29  1  0  0  0  0
 33 34  1  0  0  0  0
 33 35  1  0  0  0  0
 33 36  1  0  0  0  0
 25 33  1  0  0  0  0
 22 23  1  0  0  0  0
  6 37  1  0  0  0  0
 38 41  1  0  0  0  0
 41 42  2  0  0  0  0
 39 42  1  0  0  0  0
 39 43  2  0  0  0  0
 40 43  1  0  0  0  0
 38 40  2  0  0  0  0
 42 45  1  0  0  0  0
 43 46  1  0  0  0  0
 39 47  1  0  0  0  0
 41 44  1  0  0  0  0
 48 49  1  0  0  0  0
 48 50  1  0  0  0  0
 48 51  1  0  0  0  0
 40 48  1  0  0  0  0
 37 38  1  0  0  0  0
  1 52  1  0  0  0  0
M  END
> <PM6_ENERGY>
-408.214

> <UID>
MXWSWJNENHKNRJ-IXUVMZTCNA-M

> <FITNESS>
1.13841

> <GCODE>
19833

> <GraphENC>
19833 72_1_0,81_66_1,112_51_1,88_67_1,241222_52_1,241223_52_1,241224_52_1,424961_37_1,424962_37_1,424819_37_1, 72_0_81_0_SINGLE_Xlig:0_Xlig:1,72_2_112_3_SINGLE_scaff:0_MPhosphite:1,72_1_88_0_SINGLE_Xlig:0_Xlig:1,112_0_241222_0_SINGLE_LPhosphiteSubO:0_LPhosphiteSubO:1,112_1_241223_0_SINGLE_LPhosphiteSubO:0_LPhosphiteSubO:1,112_2_241224_0_SINGLE_LPhosphiteSubO:0_LPhosphiteSubO:1,241223_1_424961_0_SINGLE_OPhosphiteSub:1_SubArM:1,241224_1_424962_0_SINGLE_OPhosphiteSub:1_SubArM:1,241222_1_424819_0_SINGLE_OPhosphiteSub:1_SubArM:1, SymmetricSet [symIds=[241222, 241223, 241224]] SymmetricSet [symIds=[424961, 424962, 424819]] 

> <GraphJson>
{
  "graphId": 19833,
  "gVertices": [
    {
      "lstAPs": [
        {
          "id": 535704,
          "atomPositionNumber": 0,
          "atomPositionNumberInMol": 0,
          "apClass": {
            "rule": "Xlig",
            "subClass": 0,
            "bndTyp": "SINGLE"
          },
          "dirVec": {
            "x": -2.3339,
            "y": -0.0087,
            "z": 0.8172
          }
        },
        {
          "id": 535705,
          "atomPositionNumber": 0,
          "atomPositionNumberInMol": 0,
          "apClass": {
            "rule": "Xlig",
            "subClass": 0,
            "bndTyp": "SINGLE"
          },
          "dirVec": {
            "x": 2.336,
            "y": -5.0E-4,
            "z": 0.829
          }
        },
        {
          "id": 535706,
          "atomPositionNumber": 0,
          "atomPositionNumberInMol": 0,
          "apClass": {
            "rule": "scaff",
            "subClass": 0,
            "bndTyp": "SINGLE"
          },
          "dirVec": {
            "x": -0.0095,
            "y": 0.0046,
            "z": -1.7113
          }
        }
      ],
      "lstSymAPs": [
        {
          "symIds": [
            0,
            1
          ]
        }
      ],
      "mol": {
        "atoms": [
          {
            "elSymbol": "Pt",
            "p3d": {
              "x": -0.0098,
              "y": 0.0049,
              "z": 0.6289
            }
          },
          {
            "elSymbol": "C",
            "p3d": {
              "x": -6.0E-4,
              "y": 0.0016,
              "z": 2.5609
            }
          },
          {
            "elSymbol": "O",
            "p3d": {
              "x": 0.0025,
              "y": -0.0041,
              "z": 3.6974
            }
          },
          {
            "elSymbol": "Du",
            "p3d": {
              "x": -0.007,
              "y": 1.0013,
              "z": 0.6372
            }
          },
          {
            "elSymbol": "Du",
            "p3d": {
              "x": -0.0014,
              "y": 0.9902,
              "z": 2.5698
            }
          }
        ],
        "bonds": [
          {
            "atomIds": [
              1,
              2
            ],
            "bo": "TRIPLE"
          },
          {
            "atomIds": [
              0,
              1
            ],
            "bo": "SINGLE"
          },
          {
            "atomIds": [
              3,
              0
            ],
            "bo": "SINGLE"
          },
          {
            "atomIds": [
              4,
              1
            ],
            "bo": "SINGLE"
          }
        ]
      },
      "vertexId": 72,
      "buildingBlockId": 0,
      "buildingBlockType": "SCAFFOLD",
      "isRCV": false,
      "properties": {
        "ATTACHMENT_POINTS": "1#Xlig:0:SINGLE:-2.3339%-0.0087%0.8172,Xlig:0:SINGLE:2.3360%-0.0005%0.8290,scaff:0:SINGLE:-0.0095%0.0046%-1.7113 "
      },
      "uniquefyingPropertyKeys": [],
      "allowedMutationTypes": [
        "DELETE",
        "EXTEND",
        "CHANGEBRANCH",
        "CHANGELINK",
        "ADDLINK",
        "DELETELINK",
        "DELETECHAIN"
      ],
      "vertexType": "MolecularFragment"
    },
    {
      "lstAPs": [
        {
          "id": 535707,
          "atomPositionNumber": 0,
          "atomPositionNumberInMol": 5,
          "apClass": {
            "rule": "Xlig",
            "subClass": 1,
            "bndTyp": "SINGLE"
          },
          "dirVec": {
            "x": 0.0192,
            "y": -0.0048,
            "z": -0.5645
          }
        }
      ],
      "lstSymAPs": [],
      "mol": {
        "atoms": [
          {
            "elSymbol": "C",
            "p3d": {
              "x": -1.967,
              "y": -0.0075,
              "z": -0.4937
            }
          },
          {
            "elSymbol": "N",
            "p3d": {
              "x": -3.1263,
              "y": -0.0054,
              "z": -0.4354
            }
          },
          {
            "elSymbol": "Du",
            "p3d": {
              "x": -1.9744,
              "y": 0.9926,
              "z": -0.5036
            }
          }
        ],
        "bonds": [
          {
            "atomIds": [
              0,
              1
            ],
            "bo": "TRIPLE"
          },
          {
            "atomIds": [
              2,
              0
            ],
            "bo": "SINGLE"
          }
        ]
      },
      "vertexId": 81,
      "buildingBlockId": 65,
      "buildingBlockType": "FRAGMENT",
      "isRCV": false,
      "properties": {
        "ATTACHMENT_POINTS": "1#Xlig:1:SINGLE:0.0192%-0.0048%-0.5645 "
      },
      "uniquefyingPropertyKeys": [],
      "allowedMutationTypes": [
        "DELETE",
        "EXTEND",
        "CHANGEBRANCH",
        "CHANGELINK",
        "ADDLINK",
        "DELETELINK",
        "DELETECHAIN"
      ],
      "vertexType": "MolecularFragment"
    },
    {
      "lstAPs": [
        {
          "id": 535708,
          "atomPositionNumber": 0,
          "atomPositionNumberInMol": 8,
          "apClass": {
            "rule": "LPhosphiteSubO",
            "subClass": 0,
            "bndTyp": "SINGLE"
          },
          "dirVec": {
            "x": 4.0345,
            "y": 2.1486,
            "z": 6.3212
          }
        },
        {
          "id": 535709,
          "atomPositionNumber": 0,
          "atomPositionNumberInMol": 8,
          "apClass": {
            "rule": "LPhosphiteSubO",
            "subClass": 0,
            "bndTyp": "SINGLE"
          },
          "dirVec": {
            "x": 4.34,
            "y": 0.5256,
            "z": 4.4489
          }
        },
        {
          "id": 535710,
          "atomPositionNumber": 0,
          "atomPositionNumberInMol": 8,
          "apClass": {
            "rule": "LPhosphiteSubO",
            "subClass": 0,
            "bndTyp": "SINGLE"
          },
          "dirVec": {
            "x": 6.1869,
            "y": 1.2871,
            "z": 6.0121
          }
        },
        {
          "id": 535711,
          "atomPositionNumber": 0,
          "atomPositionNumberInMol": 8,
          "apClass": {
            "rule": "MPhosphite",
            "subClass": 1,
            "bndTyp": "SINGLE"
          },
          "dirVec": {
            "x": 5.4888,
            "y": 3.3787,
            "z": 3.6078
          }
        }
      ],
      "lstSymAPs": [
        {
          "symIds": [
            0,
            1,
            2
          ]
        }
      ],
      "mol": {
        "atoms": [
          {
            "elSymbol": "P",
            "p3d": {
              "x": 5.0092,
              "y": 1.7871,
              "z": 5.1118
            }
          }
        ],
        "bonds": []
      },
      "vertexId": 112,
      "buildingBlockId": 50,
      "buildingBlockType": "FRAGMENT",
      "isRCV": false,
      "properties": {
        "ATTACHMENT_POINTS": "1#LPhosphiteSubO:0:SINGLE:4.0345%2.1486%6.3212,LPhosphiteSubO:0:SINGLE:4.3400%0.5256%4.4489,LPhosphiteSubO:0:SINGLE:6.1869%1.2871%6.0121,MPhosphite:1:SINGLE:5.4888%3.3787%3.6078 "
      },
      "uniquefyingPropertyKeys": [],
      "allowedMutationTypes": [
        "DELETE",
        "EXTEND",
        "CHANGEBRANCH",
        "CHANGELINK",
        "ADDLINK",
        "DELETELINK",
        "DELETECHAIN"
      ],
      "vertexType": "MolecularFragment"
    },
    {
      "lstAPs": [
        {
          "id": 535712,
          "atomPositionNumber": 0,
          "atomPositionNumberInMol": 54,
          "apClass": {
            "rule": "Xlig",
            "subClass": 1,
            "bndTyp": "SINGLE"
          },
          "dirVec": {
            "x": -0.0053,
            "y": -0.0027,
            "z": 0.63
          }
        }
      ],
      "lstSymAPs": [],
      "mol": {
        "atoms": [
          {
            "elSymbol": "Cl",
            "p3d": {
              "x": 2.3243,
              "y": -0.0063,
              "z": 0.8189
            }
          }
        ],
        "bonds": []
      },
      "vertexId": 88,
      "buildingBlockId": 66,
      "buildingBlockType": "FRAGMENT",
      "isRCV": false,
      "properties": {
        "ATTACHMENT_POINTS": "1#Xlig:1:SINGLE:-0.0053%-0.0027%0.6300 "
      },
      "uniquefyingPropertyKeys": [],
      "allowedMutationTypes": [
        "DELETE",
        "EXTEND",
        "CHANGEBRANCH",
        "CHANGELINK",
        "ADDLINK",
        "DELETELINK",
        "DELETECHAIN"
      ],
      "vertexType": "MolecularFragment"
    },
    {
      "lstAPs": [
        {
          "id": 535713,
          "atomPositionNumber": 0,
          "atomPositionNumberInMol": 9,
          "apClass": {
            "rule": "LPhosphiteSubO",
            "subClass": 1,
            "bndTyp": "SINGLE"
          },
          "dirVec": {
            "x": 0.7035,
            "y": 2.9119,
            "z": 2.8175
          }
        },
        {
          "id": 535714,
          "atomPositionNumber": 0,
          "atomPositionNumberInMol": 9,
          "apClass": {
            "rule": "OPhosphiteSub",
            "subClass": 1,
            "bndTyp": "SINGLE"
          },
          "dirVec": {
            "x": 0.0564,
            "y": 5.2897,
            "z": 1.9394
          }
        }
      ],
      "lstSymAPs": [],
      "mol": {
        "atoms": [
          {
            "elSymbol": "O",
            "p3d": {
              "x": -0.1418,
              "y": 4.2412,
              "z": 2.9314
            }
          }
        ],
        "bonds": []
      },
      "vertexId": 241222,
      "buildingBlockId": 51,
      "buildingBlockType": "FRAGMENT",
      "isRCV": false,
      "properties": {
        "ATTACHMENT_POINTS": "1#LPhosphiteSubO:1:SINGLE:0.7035%2.9119%2.8175,OPhosphiteSub:1:SINGLE:0.0564%5.2897%1.9394 "
      },
      "uniquefyingPropertyKeys": [],
      "allowedMutationTypes": [
        "DELETE",
        "EXTEND",
        "CHANGEBRANCH",
        "CHANGELINK",
        "ADDLINK",
        "DELETELINK",
        "DELETECHAIN"
      ],
      "vertexType": "MolecularFragment"
    },
    {
      "lstAPs": [
        {
          "id": 535715,
          "atomPositionNumber": 0,
          "atomPositionNumberInMol": 24,
          "apClass": {
            "rule": "LPhosphiteSubO",
            "subClass": 1,
            "bndTyp": "SINGLE"
          },
          "dirVec": {
            "x": 0.7035,
            "y": 2.9119,
            "z": 2.8175
          }
        },
        {
          "id": 535716,
          "atomPositionNumber": 0,
          "atomPositionNumberInMol": 24,
          "apClass": {
            "rule": "OPhosphiteSub",
            "subClass": 1,
            "bndTyp": "SINGLE"
          },
          "dirVec": {
            "x": 0.0564,
            "y": 5.2897,
            "z": 1.9394
          }
        }
      ],
      "lstSymAPs": [],
      "mol": {
        "atoms": [
          {
            "elSymbol": "O",
            "p3d": {
              "x": -0.1418,
              "y": 4.2412,
              "z": 2.9314
            }
          }
        ],
        "bonds": []
      },
      "vertexId": 241223,
      "buildingBlockId": 51,
      "buildingBlockType": "FRAGMENT",
      "isRCV": false,
      "properties": {
        "ATTACHMENT_POINTS": "1#LPhosphiteSubO:1:SINGLE:0.7035%2.9119%2.8175,OPhosphiteSub:1:SINGLE:0.0564%5.2897%1.9394 "
      },
      "uniquefyingPropertyKeys": [],
      "allowedMutationTypes": [
        "DELETE",
        "EXTEND",
        "CHANGEBRANCH",
        "CHANGELINK",
        "ADDLINK",
        "DELETELINK",
        "DELETECHAIN"
      ],
      "vertexType": "MolecularFragment"
    },
    {
      "lstAPs": [
        {
          "id": 535717,
          "atomPositionNumber": 0,
          "atomPositionNumberInMol": 39,
          "apClass": {
            "rule": "LPhosphiteSubO",
            "subClass": 1,
            "bndTyp": "SINGLE"
          },
          "dirVec": {
            "x": 0.7035,
            "y": 2.9119,
            "z": 2.8175
          }
        },
        {
          "id": 535718,
          "atomPositionNumber": 0,
          "atomPositionNumberInMol": 39,
          "apClass": {
            "rule": "OPhosphiteSub",
            "subClass": 1,
            "bndTyp": "SINGLE"
          },
          "dirVec": {
            "x": 0.0564,
            "y": 5.2897,
            "z": 1.9394
          }
        }
      ],
      "lstSymAPs": [],
      "mol": {
        "atoms": [
          {
            "elSymbol": "O",
            "p3d": {
              "x": -0.1418,
              "y": 4.2412,
              "z": 2.9314
            }
          }
        ],
        "bonds": []
      },
      "vertexId": 241224,
      "buildingBlockId": 51,
      "buildingBlockType": "FRAGMENT",
      "isRCV": false,
      "properties": {
        "ATTACHMENT_POINTS": "1#LPhosphiteSubO:1:SINGLE:0.7035%2.9119%2.8175,OPhosphiteSub:1:SINGLE:0.0564%5.2897%1.9394 "
      },
      "uniquefyingPropertyKeys": [],
      "allowedMutationTypes": [
        "DELETE",
        "EXTEND",
        "CHANGEBRANCH",
        "CHANGELINK",
        "ADDLINK",
        "DELETELINK",
        "DELETECHAIN"
      ],
      "vertexType": "MolecularFragment"
    },
    {
      "lstAPs": [
        {
          "id": 535773,
          "atomPositionNumber": 0,
          "atomPositionNumberInMol": 25,
          "apClass": {
            "rule": "SubArM",
            "subClass": 1,
            "bndTyp": "SINGLE"
          },
          "dirVec": {
            "x": 0.3016,
            "y": 0.3831,
            "z": -0.6449
          }
        }
      ],
      "lstSymAPs": [],
      "mol": {
        "atoms": [
          {
            "elSymbol": "C",
            "p3d": {
              "x": 1.7096,
              "y": 0.5525,
              "z": -1.2136
            }
          },
          {
            "elSymbol": "C",
            "p3d": {
              "x": 4.2502,
              "y": 0.8767,
              "z": -2.2636
            }
          },
          {
            "elSymbol": "C",
            "p3d": {
              "x": 2.3368,
              "y": 1.7899,
              "z": -1.1199
            }
          },
          {
            "elSymbol": "C",
            "p3d": {
              "x": 2.344,
              "y": -0.5151,
              "z": -1.819
            }
          },
          {
            "elSymbol": "C",
            "p3d": {
              "x": 3.6162,
              "y": -0.3625,
              "z": -2.3439
            }
          },
          {
            "elSymbol": "C",
            "p3d": {
              "x": 3.6039,
              "y": 1.9353,
              "z": -1.6584
            }
          },
          {
            "elSymbol": "H",
            "p3d": {
              "x": 1.8411,
              "y": -1.493,
              "z": -1.8837
            }
          },
          {
            "elSymbol": "H",
            "p3d": {
              "x": 4.113,
              "y": -1.2006,
              "z": -2.8069
            }
          },
          {
            "elSymbol": "H",
            "p3d": {
              "x": 4.1107,
              "y": 2.9115,
              "z": -1.5913
            }
          },
          {
            "elSymbol": "H",
            "p3d": {
              "x": 5.2516,
              "y": 0.992,
              "z": -2.67
            }
          },
          {
            "elSymbol": "C",
            "p3d": {
              "x": 1.6301,
              "y": 2.9729,
              "z": -0.4606
            }
          },
          {
            "elSymbol": "H",
            "p3d": {
              "x": 2.3743,
              "y": 3.6775,
              "z": -0.0646
            }
          },
          {
            "elSymbol": "H",
            "p3d": {
              "x": 1.0016,
              "y": 2.6144,
              "z": 0.3512
            }
          },
          {
            "elSymbol": "H",
            "p3d": {
              "x": 1.0097,
              "y": 3.4845,
              "z": -1.1971
            }
          }
        ],
        "bonds": [
          {
            "atomIds": [
              0,
              3
            ],
            "bo": "SINGLE"
          },
          {
            "atomIds": [
              3,
              4
            ],
            "bo": "DOUBLE"
          },
          {
            "atomIds": [
              1,
              4
            ],
            "bo": "SINGLE"
          },
          {
            "atomIds": [
              1,
              5
            ],
            "bo": "DOUBLE"
          },
          {
            "atomIds": [
              2,
              5
            ],
            "bo": "SINGLE"
          },
          {
            "atomIds": [
              0,
              2
            ],
            "bo": "DOUBLE"
          },
          {
            "atomIds": [
              4,
              7
            ],
            "bo": "SINGLE"
          },
          {
            "atomIds": [
              5,
              8
            ],
            "bo": "SINGLE"
          },
          {
            "atomIds": [
              1,
              9
            ],
            "bo": "SINGLE"
          },
          {
            "atomIds": [
              3,
              6
            ],
            "bo": "SINGLE"
          },
          {
            "atomIds": [
              10,
              11
            ],
            "bo": "SINGLE"
          },
          {
            "atomIds": [
              10,
              12
            ],
            "bo": "SINGLE"
          },
          {
            "atomIds": [
              10,
              13
            ],
            "bo": "SINGLE"
          },
          {
            "atomIds": [
              2,
              10
            ],
            "bo": "SINGLE"
          }
        ]
      },
      "vertexId": 424961,
      "buildingBlockId": 36,
      "buildingBlockType": "FRAGMENT",
      "isRCV": false,
      "properties": {
        "ATTACHMENT_POINTS": "1#SubArM:1:SINGLE:0.3016%0.3831%-0.6449 "
      },
      "uniquefyingPropertyKeys": [],
      "allowedMutationTypes": [
        "DELETE",
        "EXTEND",
        "CHANGEBRANCH",
        "CHANGELINK",
        "ADDLINK",
        "DELETELINK",
        "DELETECHAIN"
      ],
      "vertexType": "MolecularFragment"
    },
    {
      "lstAPs": [
        {
          "id": 535774,
          "atomPositionNumber": 0,
          "atomPositionNumberInMol": 40,
          "apClass": {
            "rule": "SubArM",
            "subClass": 1,
            "bndTyp": "SINGLE"
          },
          "dirVec": {
            "x": 0.3016,
            "y": 0.3831,
            "z": -0.6449
          }
        }
      ],
      "lstSymAPs": [],
      "mol": {
        "atoms": [
          {
            "elSymbol": "C",
            "p3d": {
              "x": 1.7096,
              "y": 0.5525,
              "z": -1.2136
            }
          },
          {
            "elSymbol": "C",
            "p3d": {
              "x": 4.2502,
              "y": 0.8767,
              "z": -2.2636
            }
          },
          {
            "elSymbol": "C",
            "p3d": {
              "x": 2.3368,
              "y": 1.7899,
              "z": -1.1199
            }
          },
          {
            "elSymbol": "C",
            "p3d": {
              "x": 2.344,
              "y": -0.5151,
              "z": -1.819
            }
          },
          {
            "elSymbol": "C",
            "p3d": {
              "x": 3.6162,
              "y": -0.3625,
              "z": -2.3439
            }
          },
          {
            "elSymbol": "C",
            "p3d": {
              "x": 3.6039,
              "y": 1.9353,
              "z": -1.6584
            }
          },
          {
            "elSymbol": "H",
            "p3d": {
              "x": 1.8411,
              "y": -1.493,
              "z": -1.8837
            }
          },
          {
            "elSymbol": "H",
            "p3d": {
              "x": 4.113,
              "y": -1.2006,
              "z": -2.8069
            }
          },
          {
            "elSymbol": "H",
            "p3d": {
              "x": 4.1107,
              "y": 2.9115,
              "z": -1.5913
            }
          },
          {
            "elSymbol": "H",
            "p3d": {
              "x": 5.2516,
              "y": 0.992,
              "z": -2.67
            }
          },
          {
            "elSymbol": "C",
            "p3d": {
              "x": 1.6301,
              "y": 2.9729,
              "z": -0.4606
            }
          },
          {
            "elSymbol": "H",
            "p3d": {
              "x": 2.3743,
              "y": 3.6775,
              "z": -0.0646
            }
          },
          {
            "elSymbol": "H",
            "p3d": {
              "x": 1.0016,
              "y": 2.6144,
              "z": 0.3512
            }
          },
          {
            "elSymbol": "H",
            "p3d": {
              "x": 1.0097,
              "y": 3.4845,
              "z": -1.1971
            }
          }
        ],
        "bonds": [
          {
            "atomIds": [
              0,
              3
            ],
            "bo": "SINGLE"
          },
          {
            "atomIds": [
              3,
              4
            ],
            "bo": "DOUBLE"
          },
          {
            "atomIds": [
              1,
              4
            ],
            "bo": "SINGLE"
          },
          {
            "atomIds": [
              1,
              5
            ],
            "bo": "DOUBLE"
          },
          {
            "atomIds": [
              2,
              5
            ],
            "bo": "SINGLE"
          },
          {
            "atomIds": [
              0,
              2
            ],
            "bo": "DOUBLE"
          },
          {
            "atomIds": [
              4,
              7
            ],
            "bo": "SINGLE"
          },
          {
            "atomIds": [
              5,
              8
            ],
            "bo": "SINGLE"
          },
          {
            "atomIds": [
              1,
              9
            ],
            "bo": "SINGLE"
          },
          {
            "atomIds": [
              3,
              6
            ],
            "bo": "SINGLE"
          },
          {
            "atomIds": [
              10,
              11
            ],
            "bo": "SINGLE"
          },
          {
            "atomIds": [
              10,
              12
            ],
            "bo": "SINGLE"
          },
          {
            "atomIds": [
              10,
              13
            ],
            "bo": "SINGLE"
          },
          {
            "atomIds": [
              2,
              10
            ],
            "bo": "SINGLE"
          }
        ]
      },
      "vertexId": 424962,
      "buildingBlockId": 36,
      "buildingBlockType": "FRAGMENT",
      "isRCV": false,
      "properties": {
        "ATTACHMENT_POINTS": "1#SubArM:1:SINGLE:0.3016%0.3831%-0.6449 "
      },
      "uniquefyingPropertyKeys": [],
      "allowedMutationTypes": [
        "DELETE",
        "EXTEND",
        "CHANGEBRANCH",
        "CHANGELINK",
        "ADDLINK",
        "DELETELINK",
        "DELETECHAIN"
      ],
      "vertexType": "MolecularFragment"
    },
    {
      "lstAPs": [
        {
          "id": 535775,
          "atomPositionNumber": 0,
          "atomPositionNumberInMol": 10,
          "apClass": {
            "rule": "SubArM",
            "subClass": 1,
            "bndTyp": "SINGLE"
          },
          "dirVec": {
            "x": 0.3016,
            "y": 0.3831,
            "z": -0.6449
          }
        }
      ],
      "lstSymAPs": [],
      "mol": {
        "atoms": [
          {
            "elSymbol": "C",
            "p3d": {
              "x": 1.7096,
              "y": 0.5525,
              "z": -1.2136
            }
          },
          {
            "elSymbol": "C",
            "p3d": {
              "x": 4.2502,
              "y": 0.8767,
              "z": -2.2636
            }
          },
          {
            "elSymbol": "C",
            "p3d": {
              "x": 2.3368,
              "y": 1.7899,
              "z": -1.1199
            }
          },
          {
            "elSymbol": "C",
            "p3d": {
              "x": 2.344,
              "y": -0.5151,
              "z": -1.819
            }
          },
          {
            "elSymbol": "C",
            "p3d": {
              "x": 3.6162,
              "y": -0.3625,
              "z": -2.3439
            }
          },
          {
            "elSymbol": "C",
            "p3d": {
              "x": 3.6039,
              "y": 1.9353,
              "z": -1.6584
            }
          },
          {
            "elSymbol": "H",
            "p3d": {
              "x": 1.8411,
              "y": -1.493,
              "z": -1.8837
            }
          },
          {
            "elSymbol": "H",
            "p3d": {
              "x": 4.113,
              "y": -1.2006,
              "z": -2.8069
            }
          },
          {
            "elSymbol": "H",
            "p3d": {
              "x": 4.1107,
              "y": 2.9115,
              "z": -1.5913
            }
          },
          {
            "elSymbol": "H",
            "p3d": {
              "x": 5.2516,
              "y": 0.992,
              "z": -2.67
            }
          },
          {
            "elSymbol": "C",
            "p3d": {
              "x": 1.6301,
              "y": 2.9729,
              "z": -0.4606
            }
          },
          {
            "elSymbol": "H",
            "p3d": {
              "x": 2.3743,
              "y": 3.6775,
              "z": -0.0646
            }
          },
          {
            "elSymbol": "H",
            "p3d": {
              "x": 1.0016,
              "y": 2.6144,
              "z": 0.3512
            }
          },
          {
            "elSymbol": "H",
            "p3d": {
              "x": 1.0097,
              "y": 3.4845,
              "z": -1.1971
            }
          }
        ],
        "bonds": [
          {
            "atomIds": [
              0,
              3
            ],
            "bo": "SINGLE"
          },
          {
            "atomIds": [
              3,
              4
            ],
            "bo": "DOUBLE"
          },
          {
            "atomIds": [
              1,
              4
            ],
            "bo": "SINGLE"
          },
          {
            "atomIds": [
              1,
              5
            ],
            "bo": "DOUBLE"
          },
          {
            "atomIds": [
              2,
              5
            ],
            "bo": "SINGLE"
          },
          {
            "atomIds": [
              0,
              2
            ],
            "bo": "DOUBLE"
          },
          {
            "atomIds": [
              4,
              7
            ],
            "bo": "SINGLE"
          },
          {
            "atomIds": [
              5,
              8
            ],
            "bo": "SINGLE"
          },
          {
            "atomIds": [
              1,
              9
            ],
            "bo": "SINGLE"
          },
          {
            "atomIds": [
              3,
              6
            ],
            "bo": "SINGLE"
          },
          {
            "atomIds": [
              10,
              11
            ],
            "bo": "SINGLE"
          },
          {
            "atomIds": [
              10,
              12
            ],
            "bo": "SINGLE"
          },
          {
            "atomIds": [
              10,
              13
            ],
            "bo": "SINGLE"
          },
          {
            "atomIds": [
              2,
              10
            ],
            "bo": "SINGLE"
          }
        ]
      },
      "vertexId": 424819,
      "buildingBlockId": 36,
      "buildingBlockType": "FRAGMENT",
      "isRCV": false,
      "properties": {
        "ATTACHMENT_POINTS": "1#SubArM:1:SINGLE:0.3016%0.3831%-0.6449 "
      },
      "uniquefyingPropertyKeys": [],
      "allowedMutationTypes": [
        "DELETE",
        "EXTEND",
        "CHANGEBRANCH",
        "CHANGELINK",
        "ADDLINK",
        "DELETELINK",
        "DELETECHAIN"
      ],
      "vertexType": "MolecularFragment"
    }
  ],
  "gEdges": [
    {
      "srcAPID": 535704,
      "trgAPID": 535707,
      "bondType": "SINGLE"
    },
    {
      "srcAPID": 535706,
      "trgAPID": 535711,
      "bondType": "SINGLE"
    },
    {
      "srcAPID": 535705,
      "trgAPID": 535712,
      "bondType": "SINGLE"
    },
    {
      "srcAPID": 535708,
      "trgAPID": 535713,
      "bondType": "SINGLE"
    },
    {
      "srcAPID": 535709,
      "trgAPID": 535715,
      "bondType": "SINGLE"
    },
    {
      "srcAPID": 535710,
      "trgAPID": 535717,
      "bondType": "SINGLE"
    },
    {
      "srcAPID": 535716,
      "trgAPID": 535773,
      "bondType": "SINGLE"
    },
    {
      "srcAPID": 535718,
      "trgAPID": 535774,
      "bondType": "SINGLE"
    },
    {
      "srcAPID": 535714,
      "trgAPID": 535775,
      "bondType": "SINGLE"
    }
  ],
  "gRings": [],
  "symVertices": [
    {
      "symIds": [
        241222,
        241223,
        241224
      ]
    },
    {
      "symIds": [
        424961,
        424962,
        424819
      ]
    }
  ]
}

> <SMILES>
[Pt](C#O)(C#N)([P](OC=1C(=C(C(=C(C1C([H])([H])[H])[H])[H])[H])[H])(OC=2C(=C(C(=C(C2C([H])([H])[H])[H])[H])[H])[H])OC=3C(=C(C(=C(C3C([H])([H])[H])[H])[H])[H])[H])Cl

$$$$
