M00002780
  CDK     04222209413D

 42 44  0  0  0  0  0  0  0  0999 V2000
   -0.0159   -0.0051    1.5765 Pt  0  0  0  0  0  0  0  0  0  0  0  0
   -0.0341   -0.0118    3.4941 C   0  0  0  0  0  0  0  0  0  0  0  0
   -0.0444   -0.0160    4.6397 O   0  0  0  0  0  0  0  0  0  0  0  0
    0.2375   -2.0380    1.6238 O   0  0  0  0  0  0  0  0  0  0  0  0
    1.5571   -2.3738    1.2581 C   0  0  0  0  0  0  0  0  0  0  0  0
    1.6777   -3.4344    1.5206 H   0  0  0  0  0  0  0  0  0  0  0  0
    2.2729   -1.7596    1.8195 H   0  0  0  0  0  0  0  0  0  0  0  0
    1.6903   -2.2317    0.1783 H   0  0  0  0  0  0  0  0  0  0  0  0
    0.0040    0.0015   -0.4337 C   0  0  1  0  0  0  0  0  0  0  0  0
    1.0688    0.3730   -1.2471 N   0  0  0  0  0  0  0  0  0  0  0  0
    0.6813    0.2384   -2.6086 C   0  0  0  0  0  0  0  0  0  0  0  0
   -0.6249   -0.2240   -2.6242 C   0  0  0  0  0  0  0  0  0  0  0  0
   -1.0426   -0.3656   -1.2724 N   0  0  0  0  0  0  0  0  0  0  0  0
    1.6831    0.6386   -3.8892 Cl  0  0  0  0  0  0  0  0  0  0  0  0
   -2.3452   -0.8227   -0.8343 C   0  0  0  0  0  0  0  0  0  0  0  0
   -4.8331   -1.7201    0.0125 C   0  0  0  0  0  0  0  0  0  0  0  0
   -3.5016   -0.2871   -1.4242 C   0  0  0  0  0  0  0  0  0  0  0  0
   -2.4127   -1.7872    0.1826 C   0  0  0  0  0  0  0  0  0  0  0  0
   -3.6707   -2.2301    0.5996 C   0  0  0  0  0  0  0  0  0  0  0  0
   -4.7467   -0.7505   -0.9933 C   0  0  0  0  0  0  0  0  0  0  0  0
   -3.4404    0.4823   -2.1924 H   0  0  0  0  0  0  0  0  0  0  0  0
   -1.4929   -2.1950    0.6478 H   0  0  0  0  0  0  0  0  0  0  0  0
   -3.7382   -2.9804    1.3894 H   0  0  0  0  0  0  0  0  0  0  0  0
   -5.6554   -0.3499   -1.4427 H   0  0  0  0  0  0  0  0  0  0  0  0
   -5.8094   -2.0759    0.3410 H   0  0  0  0  0  0  0  0  0  0  0  0
    2.3613    0.8282   -0.7778 C   0  0  0  0  0  0  0  0  0  0  0  0
    4.8295    1.7213    0.1286 C   0  0  0  0  0  0  0  0  0  0  0  0
    3.5306    0.2935   -1.3426 C   0  0  0  0  0  0  0  0  0  0  0  0
    2.4059    1.7898    0.2430 C   0  0  0  0  0  0  0  0  0  0  0  0
    3.6542    2.2308    0.6899 C   0  0  0  0  0  0  0  0  0  0  0  0
    4.7657    0.7544   -0.8815 C   0  0  0  0  0  0  0  0  0  0  0  0
    3.4864   -0.4732   -2.1147 H   0  0  0  0  0  0  0  0  0  0  0  0
    1.4758    2.1961    0.6888 H   0  0  0  0  0  0  0  0  0  0  0  0
    3.7039    2.9793    1.4828 H   0  0  0  0  0  0  0  0  0  0  0  0
    5.6843    0.3539   -1.3105 H   0  0  0  0  0  0  0  0  0  0  0  0
    5.7982    2.0754    0.4807 H   0  0  0  0  0  0  0  0  0  0  0  0
   -1.5976   -0.6181   -3.9289 Cl  0  0  0  0  0  0  0  0  0  0  0  0
   -0.2709    2.0273    1.6340 O   0  0  0  0  0  0  0  0  0  0  0  0
   -1.5820    2.3653    1.2406 C   0  0  0  0  0  0  0  0  0  0  0  0
   -1.7145    3.4198    1.5211 H   0  0  0  0  0  0  0  0  0  0  0  0
   -2.3098    1.7370    1.7701 H   0  0  0  0  0  0  0  0  0  0  0  0
   -1.6856    2.2446    0.1550 H   0  0  0  0  0  0  0  0  0  0  0  0
  2  3  3  0  0  0  0
  1  2  1  0  0  0  0
  5  6  1  0  0  0  0
  5  7  1  0  0  0  0
  5  8  1  0  0  0  0
  4  5  1  0  0  0  0
  1  4  1  0  0  0  0
 10  9  1  0  0  0  0
 11 10  1  0  0  0  0
 12 11  2  0  0  0  0
 12 13  1  0  0  0  0
 13  9  1  0  0  0  0
  1  9  1  0  0  0  0
 11 14  1  0  0  0  0
 15 18  1  0  0  0  0
 18 19  2  0  0  0  0
 16 19  1  0  0  0  0
 16 20  2  0  0  0  0
 17 20  1  0  0  0  0
 15 17  2  0  0  0  0
 19 23  1  0  0  0  0
 20 24  1  0  0  0  0
 16 25  1  0  0  0  0
 17 21  1  0  0  0  0
 18 22  1  0  0  0  0
 13 15  1  0  0  0  0
 26 29  1  0  0  0  0
 29 30  2  0  0  0  0
 27 30  1  0  0  0  0
 27 31  2  0  0  0  0
 28 31  1  0  0  0  0
 26 28  2  0  0  0  0
 30 34  1  0  0  0  0
 31 35  1  0  0  0  0
 27 36  1  0  0  0  0
 28 32  1  0  0  0  0
 29 33  1  0  0  0  0
 10 26  1  0  0  0  0
 12 37  1  0  0  0  0
 39 40  1  0  0  0  0
 39 41  1  0  0  0  0
 39 42  1  0  0  0  0
 38 39  1  0  0  0  0
  1 38  1  0  0  0  0
M  END
> <PM6_ENERGY>
24.827

> <UID>
AJEJHWANUZXJFU-KHIXGLCMNA-N

> <FITNESS>
1.14565

> <GCODE>
3443

> <GraphENC>
3443 72_1_0,80_65_1,97_19_1,86_65_1,66257_21_1,66731_36_1,66249_36_1,66730_21_1, 72_0_80_0_SINGLE_Xlig:0_Xlig:1,72_2_97_0_SINGLE_scaff:0_MImidazolylidene:1,72_1_86_0_SINGLE_Xlig:0_Xlig:1,97_2_66257_0_SINGLE_LImidazolylideneSubCS:0_LImidazolylideneSubCS:1,97_4_66731_0_SINGLE_LImidazolylideneSubNL:0_SubArS:1,97_1_66249_0_SINGLE_LImidazolylideneSubNL:0_SubArS:1,97_3_66730_0_SINGLE_LImidazolylideneSubCS:0_LImidazolylideneSubCS:1, SymmetricSet [symIds=[66731, 66249]] SymmetricSet [symIds=[66257, 66730]] 

> <GraphJson>
{
  "graphId": 3443,
  "gVertices": [
    {
      "lstAPs": [
        {
          "id": 88246,
          "atomPositionNumber": 0,
          "atomPositionNumberInMol": 0,
          "apClass": {
            "rule": "Xlig",
            "subClass": 0,
            "bndTyp": "SINGLE"
          },
          "dirVec": {
            "x": -2.3339,
            "y": -0.0087,
            "z": 0.8172
          }
        },
        {
          "id": 88247,
          "atomPositionNumber": 0,
          "atomPositionNumberInMol": 0,
          "apClass": {
            "rule": "Xlig",
            "subClass": 0,
            "bndTyp": "SINGLE"
          },
          "dirVec": {
            "x": 2.336,
            "y": -5.0E-4,
            "z": 0.829
          }
        },
        {
          "id": 88248,
          "atomPositionNumber": 0,
          "atomPositionNumberInMol": 0,
          "apClass": {
            "rule": "scaff",
            "subClass": 0,
            "bndTyp": "SINGLE"
          },
          "dirVec": {
            "x": -0.0095,
            "y": 0.0046,
            "z": -1.7113
          }
        }
      ],
      "lstSymAPs": [
        {
          "symIds": [
            0,
            1
          ]
        }
      ],
      "mol": {
        "atoms": [
          {
            "elSymbol": "Pt",
            "p3d": {
              "x": -0.0098,
              "y": 0.0049,
              "z": 0.6289
            }
          },
          {
            "elSymbol": "C",
            "p3d": {
              "x": -6.0E-4,
              "y": 0.0016,
              "z": 2.5609
            }
          },
          {
            "elSymbol": "O",
            "p3d": {
              "x": 0.0025,
              "y": -0.0041,
              "z": 3.6974
            }
          },
          {
            "elSymbol": "Du",
            "p3d": {
              "x": -0.007,
              "y": 1.0013,
              "z": 0.6372
            }
          },
          {
            "elSymbol": "Du",
            "p3d": {
              "x": -0.0014,
              "y": 0.9902,
              "z": 2.5698
            }
          }
        ],
        "bonds": [
          {
            "atomIds": [
              1,
              2
            ],
            "bo": "TRIPLE"
          },
          {
            "atomIds": [
              0,
              1
            ],
            "bo": "SINGLE"
          },
          {
            "atomIds": [
              3,
              0
            ],
            "bo": "SINGLE"
          },
          {
            "atomIds": [
              4,
              1
            ],
            "bo": "SINGLE"
          }
        ]
      },
      "vertexId": 72,
      "buildingBlockId": 0,
      "buildingBlockType": "SCAFFOLD",
      "isRCV": false,
      "properties": {
        "ATTACHMENT_POINTS": "1#Xlig:0:SINGLE:-2.3339%-0.0087%0.8172,Xlig:0:SINGLE:2.3360%-0.0005%0.8290,scaff:0:SINGLE:-0.0095%0.0046%-1.7113 "
      },
      "uniquefyingPropertyKeys": [],
      "allowedMutationTypes": [
        "DELETE",
        "EXTEND",
        "CHANGEBRANCH",
        "CHANGELINK",
        "ADDLINK",
        "DELETELINK",
        "DELETECHAIN"
      ],
      "vertexType": "MolecularFragment"
    },
    {
      "lstAPs": [
        {
          "id": 88249,
          "atomPositionNumber": 0,
          "atomPositionNumberInMol": 5,
          "apClass": {
            "rule": "Xlig",
            "subClass": 1,
            "bndTyp": "SINGLE"
          },
          "dirVec": {
            "x": -0.1753,
            "y": 0.0948,
            "z": -0.4464
          }
        }
      ],
      "lstSymAPs": [],
      "mol": {
        "atoms": [
          {
            "elSymbol": "O",
            "p3d": {
              "x": -0.3534,
              "y": 2.1044,
              "z": -0.7339
            }
          },
          {
            "elSymbol": "C",
            "p3d": {
              "x": -0.5345,
              "y": 2.7646,
              "z": 0.4801
            }
          },
          {
            "elSymbol": "H",
            "p3d": {
              "x": -0.3728,
              "y": 3.8337,
              "z": 0.2724
            }
          },
          {
            "elSymbol": "H",
            "p3d": {
              "x": 0.1816,
              "y": 2.4161,
              "z": 1.2384
            }
          },
          {
            "elSymbol": "H",
            "p3d": {
              "x": -1.553,
              "y": 2.6149,
              "z": 0.8489
            }
          }
        ],
        "bonds": [
          {
            "atomIds": [
              1,
              2
            ],
            "bo": "SINGLE"
          },
          {
            "atomIds": [
              1,
              3
            ],
            "bo": "SINGLE"
          },
          {
            "atomIds": [
              1,
              4
            ],
            "bo": "SINGLE"
          },
          {
            "atomIds": [
              0,
              1
            ],
            "bo": "SINGLE"
          }
        ]
      },
      "vertexId": 80,
      "buildingBlockId": 64,
      "buildingBlockType": "FRAGMENT",
      "isRCV": false,
      "properties": {
        "ATTACHMENT_POINTS": "1#Xlig:1:SINGLE:-0.1753%0.0948%-0.4464 "
      },
      "uniquefyingPropertyKeys": [],
      "allowedMutationTypes": [
        "DELETE",
        "EXTEND",
        "CHANGEBRANCH",
        "CHANGELINK",
        "ADDLINK",
        "DELETELINK",
        "DELETECHAIN"
      ],
      "vertexType": "MolecularFragment"
    },
    {
      "lstAPs": [
        {
          "id": 88250,
          "atomPositionNumber": 0,
          "atomPositionNumberInMol": 10,
          "apClass": {
            "rule": "MImidazolylidene",
            "subClass": 1,
            "bndTyp": "SINGLE"
          },
          "dirVec": {
            "x": 6.9056,
            "y": 0.097,
            "z": 12.1004
          }
        },
        {
          "id": 88251,
          "atomPositionNumber": 1,
          "atomPositionNumberInMol": 11,
          "apClass": {
            "rule": "LImidazolylideneSubNL",
            "subClass": 0,
            "bndTyp": "SINGLE"
          },
          "dirVec": {
            "x": 4.1123,
            "y": 2.1609,
            "z": 11.1322
          }
        },
        {
          "id": 88252,
          "atomPositionNumber": 2,
          "atomPositionNumberInMol": 12,
          "apClass": {
            "rule": "LImidazolylideneSubCS",
            "subClass": 0,
            "bndTyp": "SINGLE"
          },
          "dirVec": {
            "x": 2.203,
            "y": 3.3086,
            "z": 13.3341
          }
        },
        {
          "id": 88253,
          "atomPositionNumber": 3,
          "atomPositionNumberInMol": 13,
          "apClass": {
            "rule": "LImidazolylideneSubCS",
            "subClass": 0,
            "bndTyp": "SINGLE"
          },
          "dirVec": {
            "x": 3.4334,
            "y": 2.3948,
            "z": 16.1586
          }
        },
        {
          "id": 88254,
          "atomPositionNumber": 4,
          "atomPositionNumberInMol": 14,
          "apClass": {
            "rule": "LImidazolylideneSubNL",
            "subClass": 0,
            "bndTyp": "SINGLE"
          },
          "dirVec": {
            "x": 5.9067,
            "y": 0.5846,
            "z": 15.5163
          }
        }
      ],
      "lstSymAPs": [
        {
          "symIds": [
            1,
            4
          ]
        },
        {
          "symIds": [
            2,
            3
          ]
        }
      ],
      "mol": {
        "atoms": [
          {
            "elSymbol": "C",
            "p3d": {
              "x": 5.2812,
              "y": 1.2018,
              "z": 13.1656
            }
          },
          {
            "elSymbol": "N",
            "p3d": {
              "x": 4.2675,
              "y": 1.9426,
              "z": 12.5989
            }
          },
          {
            "elSymbol": "C",
            "p3d": {
              "x": 3.4407,
              "y": 2.4761,
              "z": 13.582
            }
          },
          {
            "elSymbol": "C",
            "p3d": {
              "x": 3.9357,
              "y": 2.0507,
              "z": 14.777
            }
          },
          {
            "elSymbol": "N",
            "p3d": {
              "x": 5.0694,
              "y": 1.2634,
              "z": 14.5115
            }
          }
        ],
        "bonds": [
          {
            "atomIds": [
              1,
              0
            ],
            "bo": "SINGLE"
          },
          {
            "atomIds": [
              2,
              1
            ],
            "bo": "SINGLE"
          },
          {
            "atomIds": [
              3,
              2
            ],
            "bo": "DOUBLE"
          },
          {
            "atomIds": [
              3,
              4
            ],
            "bo": "SINGLE"
          },
          {
            "atomIds": [
              4,
              0
            ],
            "bo": "SINGLE"
          }
        ]
      },
      "vertexId": 97,
      "buildingBlockId": 18,
      "buildingBlockType": "FRAGMENT",
      "isRCV": false,
      "properties": {
        "ATTACHMENT_POINTS": "1#MImidazolylidene:1:SINGLE:6.9056%0.0970%12.1004 2#LImidazolylideneSubNL:0:SINGLE:4.1123%2.1609%11.1322 3#LImidazolylideneSubCS:0:SINGLE:2.2030%3.3086%13.3341 4#LImidazolylideneSubCS:0:SINGLE:3.4334%2.3948%16.1586 5#LImidazolylideneSubNL:0:SINGLE:5.9067%0.5846%15.5163 "
      },
      "uniquefyingPropertyKeys": [],
      "allowedMutationTypes": [
        "DELETE",
        "EXTEND",
        "CHANGEBRANCH",
        "CHANGELINK",
        "ADDLINK",
        "DELETELINK",
        "DELETECHAIN"
      ],
      "vertexType": "MolecularFragment"
    },
    {
      "lstAPs": [
        {
          "id": 88255,
          "atomPositionNumber": 0,
          "atomPositionNumberInMol": 39,
          "apClass": {
            "rule": "Xlig",
            "subClass": 1,
            "bndTyp": "SINGLE"
          },
          "dirVec": {
            "x": -0.1753,
            "y": 0.0948,
            "z": -0.4464
          }
        }
      ],
      "lstSymAPs": [],
      "mol": {
        "atoms": [
          {
            "elSymbol": "O",
            "p3d": {
              "x": -0.3534,
              "y": 2.1044,
              "z": -0.7339
            }
          },
          {
            "elSymbol": "C",
            "p3d": {
              "x": -0.5345,
              "y": 2.7646,
              "z": 0.4801
            }
          },
          {
            "elSymbol": "H",
            "p3d": {
              "x": -0.3728,
              "y": 3.8337,
              "z": 0.2724
            }
          },
          {
            "elSymbol": "H",
            "p3d": {
              "x": 0.1816,
              "y": 2.4161,
              "z": 1.2384
            }
          },
          {
            "elSymbol": "H",
            "p3d": {
              "x": -1.553,
              "y": 2.6149,
              "z": 0.8489
            }
          }
        ],
        "bonds": [
          {
            "atomIds": [
              1,
              2
            ],
            "bo": "SINGLE"
          },
          {
            "atomIds": [
              1,
              3
            ],
            "bo": "SINGLE"
          },
          {
            "atomIds": [
              1,
              4
            ],
            "bo": "SINGLE"
          },
          {
            "atomIds": [
              0,
              1
            ],
            "bo": "SINGLE"
          }
        ]
      },
      "vertexId": 86,
      "buildingBlockId": 64,
      "buildingBlockType": "FRAGMENT",
      "isRCV": false,
      "properties": {
        "ATTACHMENT_POINTS": "1#Xlig:1:SINGLE:-0.1753%0.0948%-0.4464 "
      },
      "uniquefyingPropertyKeys": [],
      "allowedMutationTypes": [
        "DELETE",
        "EXTEND",
        "CHANGEBRANCH",
        "CHANGELINK",
        "ADDLINK",
        "DELETELINK",
        "DELETECHAIN"
      ],
      "vertexType": "MolecularFragment"
    },
    {
      "lstAPs": [
        {
          "id": 88298,
          "atomPositionNumber": 0,
          "atomPositionNumberInMol": 15,
          "apClass": {
            "rule": "LImidazolylideneSubCS",
            "subClass": 1,
            "bndTyp": "SINGLE"
          },
          "dirVec": {
            "x": 5.5071,
            "y": 2.2827,
            "z": 3.7546
          }
        }
      ],
      "lstSymAPs": [],
      "mol": {
        "atoms": [
          {
            "elSymbol": "Cl",
            "p3d": {
              "x": 6.5936,
              "y": 1.2536,
              "z": 4.5047
            }
          }
        ],
        "bonds": []
      },
      "vertexId": 66257,
      "buildingBlockId": 20,
      "buildingBlockType": "FRAGMENT",
      "isRCV": false,
      "properties": {
        "ATTACHMENT_POINTS": "1#LImidazolylideneSubCS:1:SINGLE:5.5071%2.2827%3.7546 "
      },
      "uniquefyingPropertyKeys": [],
      "allowedMutationTypes": [
        "DELETE",
        "EXTEND",
        "CHANGEBRANCH",
        "CHANGELINK",
        "ADDLINK",
        "DELETELINK",
        "DELETECHAIN"
      ],
      "vertexType": "MolecularFragment"
    },
    {
      "lstAPs": [
        {
          "id": 88299,
          "atomPositionNumber": 0,
          "atomPositionNumberInMol": 16,
          "apClass": {
            "rule": "SubArS",
            "subClass": 1,
            "bndTyp": "SINGLE"
          },
          "dirVec": {
            "x": 0.2973,
            "y": 0.3873,
            "z": -0.6389
          }
        }
      ],
      "lstSymAPs": [],
      "mol": {
        "atoms": [
          {
            "elSymbol": "C",
            "p3d": {
              "x": 1.6995,
              "y": 0.5593,
              "z": -1.2083
            }
          },
          {
            "elSymbol": "C",
            "p3d": {
              "x": 4.2563,
              "y": 0.8754,
              "z": -2.2592
            }
          },
          {
            "elSymbol": "C",
            "p3d": {
              "x": 2.3334,
              "y": 1.79,
              "z": -1.1338
            }
          },
          {
            "elSymbol": "C",
            "p3d": {
              "x": 2.3422,
              "y": -0.5107,
              "z": -1.8125
            }
          },
          {
            "elSymbol": "C",
            "p3d": {
              "x": 3.612,
              "y": -0.3527,
              "z": -2.3321
            }
          },
          {
            "elSymbol": "C",
            "p3d": {
              "x": 3.6062,
              "y": 1.9513,
              "z": -1.6526
            }
          },
          {
            "elSymbol": "H",
            "p3d": {
              "x": 1.833,
              "y": 2.6461,
              "z": -0.6488
            }
          },
          {
            "elSymbol": "H",
            "p3d": {
              "x": 1.8361,
              "y": -1.4773,
              "z": -1.887
            }
          },
          {
            "elSymbol": "H",
            "p3d": {
              "x": 4.115,
              "y": -1.2043,
              "z": -2.8152
            }
          },
          {
            "elSymbol": "H",
            "p3d": {
              "x": 4.1097,
              "y": 2.9214,
              "z": -1.5842
            }
          },
          {
            "elSymbol": "H",
            "p3d": {
              "x": 5.2498,
              "y": 0.9926,
              "z": -2.665
            }
          }
        ],
        "bonds": [
          {
            "atomIds": [
              0,
              3
            ],
            "bo": "SINGLE"
          },
          {
            "atomIds": [
              3,
              4
            ],
            "bo": "DOUBLE"
          },
          {
            "atomIds": [
              1,
              4
            ],
            "bo": "SINGLE"
          },
          {
            "atomIds": [
              1,
              5
            ],
            "bo": "DOUBLE"
          },
          {
            "atomIds": [
              2,
              5
            ],
            "bo": "SINGLE"
          },
          {
            "atomIds": [
              0,
              2
            ],
            "bo": "DOUBLE"
          },
          {
            "atomIds": [
              4,
              8
            ],
            "bo": "SINGLE"
          },
          {
            "atomIds": [
              5,
              9
            ],
            "bo": "SINGLE"
          },
          {
            "atomIds": [
              1,
              10
            ],
            "bo": "SINGLE"
          },
          {
            "atomIds": [
              2,
              6
            ],
            "bo": "SINGLE"
          },
          {
            "atomIds": [
              3,
              7
            ],
            "bo": "SINGLE"
          }
        ]
      },
      "vertexId": 66731,
      "buildingBlockId": 35,
      "buildingBlockType": "FRAGMENT",
      "isRCV": false,
      "properties": {
        "ATTACHMENT_POINTS": "1#SubArS:1:SINGLE:0.2973%0.3873%-0.6389 "
      },
      "uniquefyingPropertyKeys": [],
      "allowedMutationTypes": [
        "DELETE",
        "EXTEND",
        "CHANGEBRANCH",
        "CHANGELINK",
        "ADDLINK",
        "DELETELINK",
        "DELETECHAIN"
      ],
      "vertexType": "MolecularFragment"
    },
    {
      "lstAPs": [
        {
          "id": 88300,
          "atomPositionNumber": 0,
          "atomPositionNumberInMol": 27,
          "apClass": {
            "rule": "SubArS",
            "subClass": 1,
            "bndTyp": "SINGLE"
          },
          "dirVec": {
            "x": 0.2973,
            "y": 0.3873,
            "z": -0.6389
          }
        }
      ],
      "lstSymAPs": [],
      "mol": {
        "atoms": [
          {
            "elSymbol": "C",
            "p3d": {
              "x": 1.6995,
              "y": 0.5593,
              "z": -1.2083
            }
          },
          {
            "elSymbol": "C",
            "p3d": {
              "x": 4.2563,
              "y": 0.8754,
              "z": -2.2592
            }
          },
          {
            "elSymbol": "C",
            "p3d": {
              "x": 2.3334,
              "y": 1.79,
              "z": -1.1338
            }
          },
          {
            "elSymbol": "C",
            "p3d": {
              "x": 2.3422,
              "y": -0.5107,
              "z": -1.8125
            }
          },
          {
            "elSymbol": "C",
            "p3d": {
              "x": 3.612,
              "y": -0.3527,
              "z": -2.3321
            }
          },
          {
            "elSymbol": "C",
            "p3d": {
              "x": 3.6062,
              "y": 1.9513,
              "z": -1.6526
            }
          },
          {
            "elSymbol": "H",
            "p3d": {
              "x": 1.833,
              "y": 2.6461,
              "z": -0.6488
            }
          },
          {
            "elSymbol": "H",
            "p3d": {
              "x": 1.8361,
              "y": -1.4773,
              "z": -1.887
            }
          },
          {
            "elSymbol": "H",
            "p3d": {
              "x": 4.115,
              "y": -1.2043,
              "z": -2.8152
            }
          },
          {
            "elSymbol": "H",
            "p3d": {
              "x": 4.1097,
              "y": 2.9214,
              "z": -1.5842
            }
          },
          {
            "elSymbol": "H",
            "p3d": {
              "x": 5.2498,
              "y": 0.9926,
              "z": -2.665
            }
          }
        ],
        "bonds": [
          {
            "atomIds": [
              0,
              3
            ],
            "bo": "SINGLE"
          },
          {
            "atomIds": [
              3,
              4
            ],
            "bo": "DOUBLE"
          },
          {
            "atomIds": [
              1,
              4
            ],
            "bo": "SINGLE"
          },
          {
            "atomIds": [
              1,
              5
            ],
            "bo": "DOUBLE"
          },
          {
            "atomIds": [
              2,
              5
            ],
            "bo": "SINGLE"
          },
          {
            "atomIds": [
              0,
              2
            ],
            "bo": "DOUBLE"
          },
          {
            "atomIds": [
              4,
              8
            ],
            "bo": "SINGLE"
          },
          {
            "atomIds": [
              5,
              9
            ],
            "bo": "SINGLE"
          },
          {
            "atomIds": [
              1,
              10
            ],
            "bo": "SINGLE"
          },
          {
            "atomIds": [
              2,
              6
            ],
            "bo": "SINGLE"
          },
          {
            "atomIds": [
              3,
              7
            ],
            "bo": "SINGLE"
          }
        ]
      },
      "vertexId": 66249,
      "buildingBlockId": 35,
      "buildingBlockType": "FRAGMENT",
      "isRCV": false,
      "properties": {
        "ATTACHMENT_POINTS": "1#SubArS:1:SINGLE:0.2973%0.3873%-0.6389 "
      },
      "uniquefyingPropertyKeys": [],
      "allowedMutationTypes": [
        "DELETE",
        "EXTEND",
        "CHANGEBRANCH",
        "CHANGELINK",
        "ADDLINK",
        "DELETELINK",
        "DELETECHAIN"
      ],
      "vertexType": "MolecularFragment"
    },
    {
      "lstAPs": [
        {
          "id": 88301,
          "atomPositionNumber": 0,
          "atomPositionNumberInMol": 38,
          "apClass": {
            "rule": "LImidazolylideneSubCS",
            "subClass": 1,
            "bndTyp": "SINGLE"
          },
          "dirVec": {
            "x": 5.5071,
            "y": 2.2827,
            "z": 3.7546
          }
        }
      ],
      "lstSymAPs": [],
      "mol": {
        "atoms": [
          {
            "elSymbol": "Cl",
            "p3d": {
              "x": 6.5936,
              "y": 1.2536,
              "z": 4.5047
            }
          }
        ],
        "bonds": []
      },
      "vertexId": 66730,
      "buildingBlockId": 20,
      "buildingBlockType": "FRAGMENT",
      "isRCV": false,
      "properties": {
        "ATTACHMENT_POINTS": "1#LImidazolylideneSubCS:1:SINGLE:5.5071%2.2827%3.7546 "
      },
      "uniquefyingPropertyKeys": [],
      "allowedMutationTypes": [
        "DELETE",
        "EXTEND",
        "CHANGEBRANCH",
        "CHANGELINK",
        "ADDLINK",
        "DELETELINK",
        "DELETECHAIN"
      ],
      "vertexType": "MolecularFragment"
    }
  ],
  "gEdges": [
    {
      "srcAPID": 88246,
      "trgAPID": 88249,
      "bondType": "SINGLE"
    },
    {
      "srcAPID": 88248,
      "trgAPID": 88250,
      "bondType": "SINGLE"
    },
    {
      "srcAPID": 88247,
      "trgAPID": 88255,
      "bondType": "SINGLE"
    },
    {
      "srcAPID": 88252,
      "trgAPID": 88298,
      "bondType": "SINGLE"
    },
    {
      "srcAPID": 88254,
      "trgAPID": 88299,
      "bondType": "SINGLE"
    },
    {
      "srcAPID": 88251,
      "trgAPID": 88300,
      "bondType": "SINGLE"
    },
    {
      "srcAPID": 88253,
      "trgAPID": 88301,
      "bondType": "SINGLE"
    }
  ],
  "gRings": [],
  "symVertices": [
    {
      "symIds": [
        66731,
        66249
      ]
    },
    {
      "symIds": [
        66257,
        66730
      ]
    }
  ]
}

> <SMILES>
[Pt](C#O)(OC([H])([H])[H])([C]1N(C(=C(N1C=2C(=C(C(=C(C2[H])[H])[H])[H])[H])Cl)Cl)C=3C(=C(C(=C(C3[H])[H])[H])[H])[H])OC([H])([H])[H]

$$$$
