M00011147
  CDK     04222212393D

 29 30  0  0  0  0  0  0  0  0999 V2000
   -2.3019    0.0243    0.5569 Pt  0  0  0  0  0  0  0  0  0  0  0  0
   -4.2667    0.2625    0.6160 C   0  0  0  0  0  0  0  0  0  0  0  0
   -5.3958    0.4042    0.6513 O   0  0  0  0  0  0  0  0  0  0  0  0
   -2.0146    1.7262   -0.4125 C   0  0  0  0  0  0  0  0  0  0  0  0
   -1.8887    2.7272   -0.9752 N   0  0  0  0  0  0  0  0  0  0  0  0
    0.5228    1.1980    2.5626 C   0  0  0  0  0  0  0  0  0  0  0  0
   -0.5528    1.3037    2.8105 H   0  0  0  0  0  0  0  0  0  0  0  0
    1.0541    2.1252    2.8659 H   0  0  0  0  0  0  0  0  0  0  0  0
    1.1659   -0.0548    3.1562 C   0  0  0  0  0  0  0  0  0  0  0  0
    2.2625   -0.0326    2.9672 H   0  0  0  0  0  0  0  0  0  0  0  0
    1.0556   -0.0522    4.2604 H   0  0  0  0  0  0  0  0  0  0  0  0
    0.5736   -1.3397    2.5772 C   0  0  0  0  0  0  0  0  0  0  0  0
    1.1598   -2.2377    2.8656 H   0  0  0  0  0  0  0  0  0  0  0  0
   -0.4870   -1.5063    2.8585 H   0  0  0  0  0  0  0  0  0  0  0  0
    0.7047    1.2336    1.1148 O   0  0  0  0  0  0  0  0  0  0  0  0
    0.7148   -1.3715    1.1266 O   0  0  0  0  0  0  0  0  0  0  0  0
   -0.0505   -0.0771    0.3849 P   0  0  0  0  0  0  0  0  0  0  0  0
    0.5146   -0.1412   -1.3405 C   0  0  0  0  0  0  0  0  0  0  0  0
    1.2934   -0.2766   -3.9979 C   0  0  0  0  0  0  0  0  0  0  0  0
    1.8560    0.0683   -1.6649 C   0  0  0  0  0  0  0  0  0  0  0  0
   -0.4486   -0.4145   -2.3183 C   0  0  0  0  0  0  0  0  0  0  0  0
   -0.0487   -0.4840   -3.6562 C   0  0  0  0  0  0  0  0  0  0  0  0
    2.2429   -0.0010   -3.0086 C   0  0  0  0  0  0  0  0  0  0  0  0
    2.6072    0.2887   -0.9015 H   0  0  0  0  0  0  0  0  0  0  0  0
   -1.5058   -0.5694   -2.0654 H   0  0  0  0  0  0  0  0  0  0  0  0
   -0.7830   -0.6931   -4.4340 H   0  0  0  0  0  0  0  0  0  0  0  0
    3.2844    0.1632   -3.2832 H   0  0  0  0  0  0  0  0  0  0  0  0
    1.5993   -0.3278   -5.0443 H   0  0  0  0  0  0  0  0  0  0  0  0
   -2.8675   -1.9455    1.7281 Cl  0  0  0  0  0  0  0  0  0  0  0  0
  2  3  3  0  0  0  0
  1  2  1  0  0  0  0
  4  5  3  0  0  0  0
  1  4  1  0  0  0  0
  6  7  1  0  0  0  0
  8  6  1  0  0  0  0
  9  6  1  0  0  0  0
 10  9  1  0  0  0  0
 11  9  1  0  0  0  0
 12  9  1  0  0  0  0
 13 12  1  0  0  0  0
 14 12  1  0  0  0  0
 15  6  1  0  0  0  0
 15 17  1  0  0  0  0
 16 12  1  0  0  0  0
 16 17  1  0  0  0  0
  1 17  1  0  0  0  0
 18 21  1  0  0  0  0
 21 22  2  0  0  0  0
 19 22  1  0  0  0  0
 19 23  2  0  0  0  0
 20 23  1  0  0  0  0
 18 20  2  0  0  0  0
 22 26  1  0  0  0  0
 23 27  1  0  0  0  0
 19 28  1  0  0  0  0
 20 24  1  0  0  0  0
 21 25  1  0  0  0  0
 17 18  1  0  0  0  0
  1 29  1  0  0  0  0
M  END
> <PM6_ENERGY>
-378.905

> <UID>
GYBNFTRQOQNQPM-UVFUNRGANA-M

> <FITNESS>
1.1385

> <GCODE>
12186

> <GraphENC>
12186 72_1_0,81_66_1,119_59_1,88_67_1,249574_36_1, 72_0_81_0_SINGLE_Xlig:0_Xlig:1,72_2_119_1_SINGLE_scaff:0_MPhosphonite:1,72_1_88_0_SINGLE_Xlig:0_Xlig:1,119_0_249574_0_SINGLE_LPhosphoniteSubR:0_SubArS:1, 

> <GraphJson>
{
  "graphId": 12186,
  "gVertices": [
    {
      "lstAPs": [
        {
          "id": 325667,
          "atomPositionNumber": 0,
          "atomPositionNumberInMol": 0,
          "apClass": {
            "rule": "Xlig",
            "subClass": 0,
            "bndTyp": "SINGLE"
          },
          "dirVec": {
            "x": -2.3339,
            "y": -0.0087,
            "z": 0.8172
          }
        },
        {
          "id": 325668,
          "atomPositionNumber": 0,
          "atomPositionNumberInMol": 0,
          "apClass": {
            "rule": "Xlig",
            "subClass": 0,
            "bndTyp": "SINGLE"
          },
          "dirVec": {
            "x": 2.336,
            "y": -5.0E-4,
            "z": 0.829
          }
        },
        {
          "id": 325669,
          "atomPositionNumber": 0,
          "atomPositionNumberInMol": 0,
          "apClass": {
            "rule": "scaff",
            "subClass": 0,
            "bndTyp": "SINGLE"
          },
          "dirVec": {
            "x": -0.0095,
            "y": 0.0046,
            "z": -1.7113
          }
        }
      ],
      "lstSymAPs": [
        {
          "symIds": [
            0,
            1
          ]
        }
      ],
      "mol": {
        "atoms": [
          {
            "elSymbol": "Pt",
            "p3d": {
              "x": -0.0098,
              "y": 0.0049,
              "z": 0.6289
            }
          },
          {
            "elSymbol": "C",
            "p3d": {
              "x": -6.0E-4,
              "y": 0.0016,
              "z": 2.5609
            }
          },
          {
            "elSymbol": "O",
            "p3d": {
              "x": 0.0025,
              "y": -0.0041,
              "z": 3.6974
            }
          },
          {
            "elSymbol": "Du",
            "p3d": {
              "x": -0.007,
              "y": 1.0013,
              "z": 0.6372
            }
          },
          {
            "elSymbol": "Du",
            "p3d": {
              "x": -0.0014,
              "y": 0.9902,
              "z": 2.5698
            }
          }
        ],
        "bonds": [
          {
            "atomIds": [
              1,
              2
            ],
            "bo": "TRIPLE"
          },
          {
            "atomIds": [
              0,
              1
            ],
            "bo": "SINGLE"
          },
          {
            "atomIds": [
              3,
              0
            ],
            "bo": "SINGLE"
          },
          {
            "atomIds": [
              4,
              1
            ],
            "bo": "SINGLE"
          }
        ]
      },
      "vertexId": 72,
      "buildingBlockId": 0,
      "buildingBlockType": "SCAFFOLD",
      "isRCV": false,
      "properties": {
        "ATTACHMENT_POINTS": "1#Xlig:0:SINGLE:-2.3339%-0.0087%0.8172,Xlig:0:SINGLE:2.3360%-0.0005%0.8290,scaff:0:SINGLE:-0.0095%0.0046%-1.7113 "
      },
      "uniquefyingPropertyKeys": [],
      "allowedMutationTypes": [
        "DELETE",
        "EXTEND",
        "CHANGEBRANCH",
        "CHANGELINK",
        "ADDLINK",
        "DELETELINK",
        "DELETECHAIN"
      ],
      "vertexType": "MolecularFragment"
    },
    {
      "lstAPs": [
        {
          "id": 325670,
          "atomPositionNumber": 0,
          "atomPositionNumberInMol": 5,
          "apClass": {
            "rule": "Xlig",
            "subClass": 1,
            "bndTyp": "SINGLE"
          },
          "dirVec": {
            "x": 0.0192,
            "y": -0.0048,
            "z": -0.5645
          }
        }
      ],
      "lstSymAPs": [],
      "mol": {
        "atoms": [
          {
            "elSymbol": "C",
            "p3d": {
              "x": -1.967,
              "y": -0.0075,
              "z": -0.4937
            }
          },
          {
            "elSymbol": "N",
            "p3d": {
              "x": -3.1263,
              "y": -0.0054,
              "z": -0.4354
            }
          },
          {
            "elSymbol": "Du",
            "p3d": {
              "x": -1.9744,
              "y": 0.9926,
              "z": -0.5036
            }
          }
        ],
        "bonds": [
          {
            "atomIds": [
              0,
              1
            ],
            "bo": "TRIPLE"
          },
          {
            "atomIds": [
              2,
              0
            ],
            "bo": "SINGLE"
          }
        ]
      },
      "vertexId": 81,
      "buildingBlockId": 65,
      "buildingBlockType": "FRAGMENT",
      "isRCV": false,
      "properties": {
        "ATTACHMENT_POINTS": "1#Xlig:1:SINGLE:0.0192%-0.0048%-0.5645 "
      },
      "uniquefyingPropertyKeys": [],
      "allowedMutationTypes": [
        "DELETE",
        "EXTEND",
        "CHANGEBRANCH",
        "CHANGELINK",
        "ADDLINK",
        "DELETELINK",
        "DELETECHAIN"
      ],
      "vertexType": "MolecularFragment"
    },
    {
      "lstAPs": [
        {
          "id": 325671,
          "atomPositionNumber": 11,
          "atomPositionNumberInMol": 19,
          "apClass": {
            "rule": "LPhosphoniteSubR",
            "subClass": 0,
            "bndTyp": "SINGLE"
          },
          "dirVec": {
            "x": 2.7128,
            "y": 1.5224,
            "z": 3.4841
          }
        },
        {
          "id": 325672,
          "atomPositionNumber": 11,
          "atomPositionNumberInMol": 19,
          "apClass": {
            "rule": "MPhosphonite",
            "subClass": 1,
            "bndTyp": "SINGLE"
          },
          "dirVec": {
            "x": 2.5476,
            "y": 4.788,
            "z": 4.3969
          }
        }
      ],
      "lstSymAPs": [],
      "mol": {
        "atoms": [
          {
            "elSymbol": "C",
            "p3d": {
              "x": 0.7537,
              "y": 3.745,
              "z": 0.8399
            }
          },
          {
            "elSymbol": "H",
            "p3d": {
              "x": 0.5695,
              "y": 4.7704,
              "z": 1.1332
            }
          },
          {
            "elSymbol": "H",
            "p3d": {
              "x": -0.148,
              "y": 3.3512,
              "z": 0.3374
            }
          },
          {
            "elSymbol": "C",
            "p3d": {
              "x": 1.9094,
              "y": 3.7216,
              "z": -0.1375
            }
          },
          {
            "elSymbol": "H",
            "p3d": {
              "x": 2.0131,
              "y": 2.7201,
              "z": -0.556
            }
          },
          {
            "elSymbol": "H",
            "p3d": {
              "x": 1.7132,
              "y": 4.3969,
              "z": -0.9763
            }
          },
          {
            "elSymbol": "C",
            "p3d": {
              "x": 3.1937,
              "y": 4.0991,
              "z": 0.5062
            }
          },
          {
            "elSymbol": "H",
            "p3d": {
              "x": 4.0091,
              "y": 4.059,
              "z": -0.2475
            }
          },
          {
            "elSymbol": "H",
            "p3d": {
              "x": 3.1376,
              "y": 5.1254,
              "z": 0.85
            }
          },
          {
            "elSymbol": "O",
            "p3d": {
              "x": 1.0555,
              "y": 2.9275,
              "z": 2.0087
            }
          },
          {
            "elSymbol": "O",
            "p3d": {
              "x": 3.5155,
              "y": 3.2295,
              "z": 1.6213
            }
          },
          {
            "elSymbol": "P",
            "p3d": {
              "x": 2.4376,
              "y": 3.1406,
              "z": 2.7957
            }
          }
        ],
        "bonds": [
          {
            "atomIds": [
              0,
              1
            ],
            "bo": "SINGLE"
          },
          {
            "atomIds": [
              2,
              0
            ],
            "bo": "SINGLE"
          },
          {
            "atomIds": [
              3,
              0
            ],
            "bo": "SINGLE"
          },
          {
            "atomIds": [
              4,
              3
            ],
            "bo": "SINGLE"
          },
          {
            "atomIds": [
              5,
              3
            ],
            "bo": "SINGLE"
          },
          {
            "atomIds": [
              6,
              3
            ],
            "bo": "SINGLE"
          },
          {
            "atomIds": [
              7,
              6
            ],
            "bo": "SINGLE"
          },
          {
            "atomIds": [
              8,
              6
            ],
            "bo": "SINGLE"
          },
          {
            "atomIds": [
              9,
              0
            ],
            "bo": "SINGLE"
          },
          {
            "atomIds": [
              9,
              11
            ],
            "bo": "SINGLE"
          },
          {
            "atomIds": [
              10,
              6
            ],
            "bo": "SINGLE"
          },
          {
            "atomIds": [
              10,
              11
            ],
            "bo": "SINGLE"
          }
        ]
      },
      "vertexId": 119,
      "buildingBlockId": 58,
      "buildingBlockType": "FRAGMENT",
      "isRCV": false,
      "properties": {
        "ATTACHMENT_POINTS": "12#LPhosphoniteSubR:0:SINGLE:2.7128%1.5224%3.4841,MPhosphonite:1:SINGLE:2.5476%4.7880%4.3969 "
      },
      "uniquefyingPropertyKeys": [],
      "allowedMutationTypes": [
        "DELETE",
        "EXTEND",
        "CHANGEBRANCH",
        "CHANGELINK",
        "ADDLINK",
        "DELETELINK",
        "DELETECHAIN"
      ],
      "vertexType": "MolecularFragment"
    },
    {
      "lstAPs": [
        {
          "id": 325673,
          "atomPositionNumber": 0,
          "atomPositionNumberInMol": 31,
          "apClass": {
            "rule": "Xlig",
            "subClass": 1,
            "bndTyp": "SINGLE"
          },
          "dirVec": {
            "x": -0.0053,
            "y": -0.0027,
            "z": 0.63
          }
        }
      ],
      "lstSymAPs": [],
      "mol": {
        "atoms": [
          {
            "elSymbol": "Cl",
            "p3d": {
              "x": 2.3243,
              "y": -0.0063,
              "z": 0.8189
            }
          }
        ],
        "bonds": []
      },
      "vertexId": 88,
      "buildingBlockId": 66,
      "buildingBlockType": "FRAGMENT",
      "isRCV": false,
      "properties": {
        "ATTACHMENT_POINTS": "1#Xlig:1:SINGLE:-0.0053%-0.0027%0.6300 "
      },
      "uniquefyingPropertyKeys": [],
      "allowedMutationTypes": [
        "DELETE",
        "EXTEND",
        "CHANGEBRANCH",
        "CHANGELINK",
        "ADDLINK",
        "DELETELINK",
        "DELETECHAIN"
      ],
      "vertexType": "MolecularFragment"
    },
    {
      "lstAPs": [
        {
          "id": 325698,
          "atomPositionNumber": 0,
          "atomPositionNumberInMol": 20,
          "apClass": {
            "rule": "SubArS",
            "subClass": 1,
            "bndTyp": "SINGLE"
          },
          "dirVec": {
            "x": 0.2973,
            "y": 0.3873,
            "z": -0.6389
          }
        }
      ],
      "lstSymAPs": [],
      "mol": {
        "atoms": [
          {
            "elSymbol": "C",
            "p3d": {
              "x": 1.6995,
              "y": 0.5593,
              "z": -1.2083
            }
          },
          {
            "elSymbol": "C",
            "p3d": {
              "x": 4.2563,
              "y": 0.8754,
              "z": -2.2592
            }
          },
          {
            "elSymbol": "C",
            "p3d": {
              "x": 2.3334,
              "y": 1.79,
              "z": -1.1338
            }
          },
          {
            "elSymbol": "C",
            "p3d": {
              "x": 2.3422,
              "y": -0.5107,
              "z": -1.8125
            }
          },
          {
            "elSymbol": "C",
            "p3d": {
              "x": 3.612,
              "y": -0.3527,
              "z": -2.3321
            }
          },
          {
            "elSymbol": "C",
            "p3d": {
              "x": 3.6062,
              "y": 1.9513,
              "z": -1.6526
            }
          },
          {
            "elSymbol": "H",
            "p3d": {
              "x": 1.833,
              "y": 2.6461,
              "z": -0.6488
            }
          },
          {
            "elSymbol": "H",
            "p3d": {
              "x": 1.8361,
              "y": -1.4773,
              "z": -1.887
            }
          },
          {
            "elSymbol": "H",
            "p3d": {
              "x": 4.115,
              "y": -1.2043,
              "z": -2.8152
            }
          },
          {
            "elSymbol": "H",
            "p3d": {
              "x": 4.1097,
              "y": 2.9214,
              "z": -1.5842
            }
          },
          {
            "elSymbol": "H",
            "p3d": {
              "x": 5.2498,
              "y": 0.9926,
              "z": -2.665
            }
          }
        ],
        "bonds": [
          {
            "atomIds": [
              0,
              3
            ],
            "bo": "SINGLE"
          },
          {
            "atomIds": [
              3,
              4
            ],
            "bo": "DOUBLE"
          },
          {
            "atomIds": [
              1,
              4
            ],
            "bo": "SINGLE"
          },
          {
            "atomIds": [
              1,
              5
            ],
            "bo": "DOUBLE"
          },
          {
            "atomIds": [
              2,
              5
            ],
            "bo": "SINGLE"
          },
          {
            "atomIds": [
              0,
              2
            ],
            "bo": "DOUBLE"
          },
          {
            "atomIds": [
              4,
              8
            ],
            "bo": "SINGLE"
          },
          {
            "atomIds": [
              5,
              9
            ],
            "bo": "SINGLE"
          },
          {
            "atomIds": [
              1,
              10
            ],
            "bo": "SINGLE"
          },
          {
            "atomIds": [
              2,
              6
            ],
            "bo": "SINGLE"
          },
          {
            "atomIds": [
              3,
              7
            ],
            "bo": "SINGLE"
          }
        ]
      },
      "vertexId": 249574,
      "buildingBlockId": 35,
      "buildingBlockType": "FRAGMENT",
      "isRCV": false,
      "properties": {
        "ATTACHMENT_POINTS": "1#SubArS:1:SINGLE:0.2973%0.3873%-0.6389 "
      },
      "uniquefyingPropertyKeys": [],
      "allowedMutationTypes": [
        "DELETE",
        "EXTEND",
        "CHANGEBRANCH",
        "CHANGELINK",
        "ADDLINK",
        "DELETELINK",
        "DELETECHAIN"
      ],
      "vertexType": "MolecularFragment"
    }
  ],
  "gEdges": [
    {
      "srcAPID": 325667,
      "trgAPID": 325670,
      "bondType": "SINGLE"
    },
    {
      "srcAPID": 325669,
      "trgAPID": 325672,
      "bondType": "SINGLE"
    },
    {
      "srcAPID": 325668,
      "trgAPID": 325673,
      "bondType": "SINGLE"
    },
    {
      "srcAPID": 325671,
      "trgAPID": 325698,
      "bondType": "SINGLE"
    }
  ],
  "gRings": [],
  "symVertices": []
}

> <SMILES>
[Pt](C#O)(C#N)([P]1(OC([H])([H])C([H])([H])C([H])([H])O1)C=2C(=C(C(=C(C2[H])[H])[H])[H])[H])Cl

$$$$
