M00002984
  CDK     04222209463D

 40 41  0  0  0  0  0  0  0  0999 V2000
   -2.0688    0.0538    0.5642 Pt  0  0  0  0  0  0  0  0  0  0  0  0
   -3.9998    0.2473    0.5453 C   0  0  0  0  0  0  0  0  0  0  0  0
   -5.1355    0.3992    0.5324 O   0  0  0  0  0  0  0  0  0  0  0  0
   -1.3901    1.9050    1.1234 O   0  0  0  0  0  0  0  0  0  0  0  0
   -2.2953    2.5932    1.9552 C   0  0  0  0  0  0  0  0  0  0  0  0
   -1.7694    3.4973    2.2911 H   0  0  0  0  0  0  0  0  0  0  0  0
   -2.5642    1.9673    2.8143 H   0  0  0  0  0  0  0  0  0  0  0  0
   -3.1856    2.8714    1.3775 H   0  0  0  0  0  0  0  0  0  0  0  0
    0.1980    0.0658    0.6005 P   0  0  0  0  0  0  0  0  0  0  0  0
    0.7632    1.4054   -0.5952 C   0  0  0  0  0  0  0  0  0  0  0  0
    0.3720    2.4019   -0.2486 H   0  0  0  0  0  0  0  0  0  0  0  0
    2.2905    1.4327   -0.6286 C   0  0  0  0  0  0  0  0  0  0  0  0
    2.6839    1.7962    0.3441 H   0  0  0  0  0  0  0  0  0  0  0  0
    2.6040    2.2077   -1.3631 H   0  0  0  0  0  0  0  0  0  0  0  0
    2.9907    0.1176   -1.0087 C   0  0  0  0  0  0  0  0  0  0  0  0
    4.0826    0.2469   -0.8713 H   0  0  0  0  0  0  0  0  0  0  0  0
    2.8437   -0.0558   -2.1010 H   0  0  0  0  0  0  0  0  0  0  0  0
    2.5497   -1.1473   -0.2539 C   0  0  0  0  0  0  0  0  0  0  0  0
    3.0357   -2.0189   -0.7467 H   0  0  0  0  0  0  0  0  0  0  0  0
    2.9739   -1.1331    0.7717 H   0  0  0  0  0  0  0  0  0  0  0  0
    1.0439   -1.4200   -0.1958 C   0  0  0  0  0  0  0  0  0  0  0  0
    0.8650   -2.3464    0.4013 H   0  0  0  0  0  0  0  0  0  0  0  0
    0.3276   -1.5565   -1.5468 C   0  0  0  0  0  0  0  0  0  0  0  0
   -0.7558   -1.8081   -1.3756 H   0  0  0  0  0  0  0  0  0  0  0  0
    0.7346   -2.4442   -2.0743 H   0  0  0  0  0  0  0  0  0  0  0  0
    0.4222   -0.3514   -2.4976 C   0  0  0  0  0  0  0  0  0  0  0  0
    1.4530   -0.2970   -2.9137 H   0  0  0  0  0  0  0  0  0  0  0  0
   -0.2424   -0.5435   -3.3650 H   0  0  0  0  0  0  0  0  0  0  0  0
    0.0520    1.0177   -1.9001 C   0  0  0  0  0  0  0  0  0  0  0  0
    0.2690    1.7964   -2.6621 H   0  0  0  0  0  0  0  0  0  0  0  0
   -1.0566    1.0695   -1.7518 H   0  0  0  0  0  0  0  0  0  0  0  0
    0.8788    0.3403    2.3172 C   0  0  0  0  0  0  0  0  0  0  0  0
    0.4052    1.2428    2.7500 H   0  0  0  0  0  0  0  0  0  0  0  0
    1.9631    0.4971    2.3142 H   0  0  0  0  0  0  0  0  0  0  0  0
    0.6496   -0.5006    2.9828 H   0  0  0  0  0  0  0  0  0  0  0  0
   -2.4869   -1.8277   -0.1206 O   0  0  0  0  0  0  0  0  0  0  0  0
   -2.3871   -2.7481    0.9435 C   0  0  0  0  0  0  0  0  0  0  0  0
   -3.0559   -3.5817    0.6850 H   0  0  0  0  0  0  0  0  0  0  0  0
   -2.7050   -2.2846    1.8864 H   0  0  0  0  0  0  0  0  0  0  0  0
   -1.3535   -3.1076    1.0204 H   0  0  0  0  0  0  0  0  0  0  0  0
  2  3  3  0  0  0  0
  1  2  1  0  0  0  0
  5  6  1  0  0  0  0
  5  7  1  0  0  0  0
  5  8  1  0  0  0  0
  4  5  1  0  0  0  0
  1  4  1  0  0  0  0
 10  9  1  0  0  0  0
 10 11  1  0  0  0  0
 12 10  1  0  0  0  0
 13 12  1  0  0  0  0
 14 12  1  0  0  0  0
 15 12  1  0  0  0  0
 16 15  1  0  0  0  0
 17 15  1  0  0  0  0
 18 15  1  0  0  0  0
 18 21  1  0  0  0  0
 19 18  1  0  0  0  0
 20 18  1  0  0  0  0
 21  9  1  0  0  0  0
 21 22  1  0  0  0  0
 23 21  1  0  0  0  0
 24 23  1  0  0  0  0
 25 23  1  0  0  0  0
 26 23  1  0  0  0  0
 26 29  1  0  0  0  0
 27 26  1  0  0  0  0
 28 26  1  0  0  0  0
 29 10  1  0  0  0  0
 30 29  1  0  0  0  0
 31 29  1  0  0  0  0
  1  9  1  0  0  0  0
 33 32  1  0  0  0  0
 34 32  1  0  0  0  0
 35 32  1  0  0  0  0
  9 32  1  0  0  0  0
 37 38  1  0  0  0  0
 37 39  1  0  0  0  0
 37 40  1  0  0  0  0
 36 37  1  0  0  0  0
  1 36  1  0  0  0  0
M  END
> <PM6_ENERGY>
-541.944

> <UID>
GEBHUDBLVMVGQW-GAACGDGMNA-N

> <FITNESS>
1.14589

> <GCODE>
3677

> <GraphENC>
3677 72_1_0,80_65_1,102_40_1,86_65_1,70913_2_2, 72_0_80_0_SINGLE_Xlig:0_Xlig:1,72_2_102_1_SINGLE_scaff:0_MPhosphine:1,72_1_86_0_SINGLE_Xlig:0_Xlig:1,102_0_70913_0_SINGLE_LPhosphineSubM:0_me:1, 

> <GraphJson>
{
  "graphId": 3677,
  "gVertices": [
    {
      "lstAPs": [
        {
          "id": 93975,
          "atomPositionNumber": 0,
          "atomPositionNumberInMol": 0,
          "apClass": {
            "rule": "Xlig",
            "subClass": 0,
            "bndTyp": "SINGLE"
          },
          "dirVec": {
            "x": -2.3339,
            "y": -0.0087,
            "z": 0.8172
          }
        },
        {
          "id": 93976,
          "atomPositionNumber": 0,
          "atomPositionNumberInMol": 0,
          "apClass": {
            "rule": "Xlig",
            "subClass": 0,
            "bndTyp": "SINGLE"
          },
          "dirVec": {
            "x": 2.336,
            "y": -5.0E-4,
            "z": 0.829
          }
        },
        {
          "id": 93977,
          "atomPositionNumber": 0,
          "atomPositionNumberInMol": 0,
          "apClass": {
            "rule": "scaff",
            "subClass": 0,
            "bndTyp": "SINGLE"
          },
          "dirVec": {
            "x": -0.0095,
            "y": 0.0046,
            "z": -1.7113
          }
        }
      ],
      "lstSymAPs": [
        {
          "symIds": [
            0,
            1
          ]
        }
      ],
      "mol": {
        "atoms": [
          {
            "elSymbol": "Pt",
            "p3d": {
              "x": -0.0098,
              "y": 0.0049,
              "z": 0.6289
            }
          },
          {
            "elSymbol": "C",
            "p3d": {
              "x": -6.0E-4,
              "y": 0.0016,
              "z": 2.5609
            }
          },
          {
            "elSymbol": "O",
            "p3d": {
              "x": 0.0025,
              "y": -0.0041,
              "z": 3.6974
            }
          },
          {
            "elSymbol": "Du",
            "p3d": {
              "x": -0.007,
              "y": 1.0013,
              "z": 0.6372
            }
          },
          {
            "elSymbol": "Du",
            "p3d": {
              "x": -0.0014,
              "y": 0.9902,
              "z": 2.5698
            }
          }
        ],
        "bonds": [
          {
            "atomIds": [
              1,
              2
            ],
            "bo": "TRIPLE"
          },
          {
            "atomIds": [
              0,
              1
            ],
            "bo": "SINGLE"
          },
          {
            "atomIds": [
              3,
              0
            ],
            "bo": "SINGLE"
          },
          {
            "atomIds": [
              4,
              1
            ],
            "bo": "SINGLE"
          }
        ]
      },
      "vertexId": 72,
      "buildingBlockId": 0,
      "buildingBlockType": "SCAFFOLD",
      "isRCV": false,
      "properties": {
        "ATTACHMENT_POINTS": "1#Xlig:0:SINGLE:-2.3339%-0.0087%0.8172,Xlig:0:SINGLE:2.3360%-0.0005%0.8290,scaff:0:SINGLE:-0.0095%0.0046%-1.7113 "
      },
      "uniquefyingPropertyKeys": [],
      "allowedMutationTypes": [
        "DELETE",
        "EXTEND",
        "CHANGEBRANCH",
        "CHANGELINK",
        "ADDLINK",
        "DELETELINK",
        "DELETECHAIN"
      ],
      "vertexType": "MolecularFragment"
    },
    {
      "lstAPs": [
        {
          "id": 93978,
          "atomPositionNumber": 0,
          "atomPositionNumberInMol": 5,
          "apClass": {
            "rule": "Xlig",
            "subClass": 1,
            "bndTyp": "SINGLE"
          },
          "dirVec": {
            "x": -0.1753,
            "y": 0.0948,
            "z": -0.4464
          }
        }
      ],
      "lstSymAPs": [],
      "mol": {
        "atoms": [
          {
            "elSymbol": "O",
            "p3d": {
              "x": -0.3534,
              "y": 2.1044,
              "z": -0.7339
            }
          },
          {
            "elSymbol": "C",
            "p3d": {
              "x": -0.5345,
              "y": 2.7646,
              "z": 0.4801
            }
          },
          {
            "elSymbol": "H",
            "p3d": {
              "x": -0.3728,
              "y": 3.8337,
              "z": 0.2724
            }
          },
          {
            "elSymbol": "H",
            "p3d": {
              "x": 0.1816,
              "y": 2.4161,
              "z": 1.2384
            }
          },
          {
            "elSymbol": "H",
            "p3d": {
              "x": -1.553,
              "y": 2.6149,
              "z": 0.8489
            }
          }
        ],
        "bonds": [
          {
            "atomIds": [
              1,
              2
            ],
            "bo": "SINGLE"
          },
          {
            "atomIds": [
              1,
              3
            ],
            "bo": "SINGLE"
          },
          {
            "atomIds": [
              1,
              4
            ],
            "bo": "SINGLE"
          },
          {
            "atomIds": [
              0,
              1
            ],
            "bo": "SINGLE"
          }
        ]
      },
      "vertexId": 80,
      "buildingBlockId": 64,
      "buildingBlockType": "FRAGMENT",
      "isRCV": false,
      "properties": {
        "ATTACHMENT_POINTS": "1#Xlig:1:SINGLE:-0.1753%0.0948%-0.4464 "
      },
      "uniquefyingPropertyKeys": [],
      "allowedMutationTypes": [
        "DELETE",
        "EXTEND",
        "CHANGEBRANCH",
        "CHANGELINK",
        "ADDLINK",
        "DELETELINK",
        "DELETECHAIN"
      ],
      "vertexType": "MolecularFragment"
    },
    {
      "lstAPs": [
        {
          "id": 93979,
          "atomPositionNumber": 0,
          "atomPositionNumberInMol": 10,
          "apClass": {
            "rule": "LPhosphineSubM",
            "subClass": 0,
            "bndTyp": "SINGLE"
          },
          "dirVec": {
            "x": 7.9272,
            "y": -2.5174,
            "z": 6.3831
          }
        },
        {
          "id": 93980,
          "atomPositionNumber": 0,
          "atomPositionNumberInMol": 10,
          "apClass": {
            "rule": "MPhosphine",
            "subClass": 1,
            "bndTyp": "SINGLE"
          },
          "dirVec": {
            "x": 5.3681,
            "y": -0.8345,
            "z": 7.9017
          }
        }
      ],
      "lstSymAPs": [],
      "mol": {
        "atoms": [
          {
            "elSymbol": "P",
            "p3d": {
              "x": 6.9938,
              "y": -2.3142,
              "z": 7.9569
            }
          },
          {
            "elSymbol": "C",
            "p3d": {
              "x": 6.4789,
              "y": -4.0179,
              "z": 8.4779
            }
          },
          {
            "elSymbol": "H",
            "p3d": {
              "x": 5.6991,
              "y": -4.3449,
              "z": 7.7903
            }
          },
          {
            "elSymbol": "C",
            "p3d": {
              "x": 7.6308,
              "y": -5.0175,
              "z": 8.3775
            }
          },
          {
            "elSymbol": "H",
            "p3d": {
              "x": 7.9355,
              "y": -5.0968,
              "z": 7.3495
            }
          },
          {
            "elSymbol": "H",
            "p3d": {
              "x": 7.2741,
              "y": -5.9875,
              "z": 8.7015
            }
          },
          {
            "elSymbol": "C",
            "p3d": {
              "x": 8.8837,
              "y": -4.6364,
              "z": 9.2304
            }
          },
          {
            "elSymbol": "H",
            "p3d": {
              "x": 9.6989,
              "y": -5.3031,
              "z": 8.9301
            }
          },
          {
            "elSymbol": "H",
            "p3d": {
              "x": 8.6577,
              "y": -4.8647,
              "z": 10.2633
            }
          },
          {
            "elSymbol": "C",
            "p3d": {
              "x": 9.3638,
              "y": -3.1969,
              "z": 9.1272
            }
          },
          {
            "elSymbol": "H",
            "p3d": {
              "x": 10.1041,
              "y": -3.0308,
              "z": 9.9217
            }
          },
          {
            "elSymbol": "H",
            "p3d": {
              "x": 9.884,
              "y": -3.0664,
              "z": 8.1855
            }
          },
          {
            "elSymbol": "C",
            "p3d": {
              "x": 8.2791,
              "y": -2.1163,
              "z": 9.2588
            }
          },
          {
            "elSymbol": "H",
            "p3d": {
              "x": 8.7569,
              "y": -1.1402,
              "z": 9.1018
            }
          },
          {
            "elSymbol": "C",
            "p3d": {
              "x": 7.5764,
              "y": -2.0735,
              "z": 10.6271
            }
          },
          {
            "elSymbol": "H",
            "p3d": {
              "x": 6.9371,
              "y": -1.1906,
              "z": 10.6604
            }
          },
          {
            "elSymbol": "H",
            "p3d": {
              "x": 8.3398,
              "y": -1.9598,
              "z": 11.4008
            }
          },
          {
            "elSymbol": "C",
            "p3d": {
              "x": 6.717,
              "y": -3.3005,
              "z": 10.9996
            }
          },
          {
            "elSymbol": "H",
            "p3d": {
              "x": 7.3706,
              "y": -4.0717,
              "z": 11.3581
            }
          },
          {
            "elSymbol": "H",
            "p3d": {
              "x": 6.058,
              "y": -3.0039,
              "z": 11.8074
            }
          },
          {
            "elSymbol": "C",
            "p3d": {
              "x": 5.8297,
              "y": -3.8969,
              "z": 9.8822
            }
          },
          {
            "elSymbol": "H",
            "p3d": {
              "x": 5.5463,
              "y": -4.9079,
              "z": 10.192
            }
          },
          {
            "elSymbol": "H",
            "p3d": {
              "x": 4.9376,
              "y": -3.3154,
              "z": 9.8051
            }
          }
        ],
        "bonds": [
          {
            "atomIds": [
              1,
              0
            ],
            "bo": "SINGLE"
          },
          {
            "atomIds": [
              1,
              2
            ],
            "bo": "SINGLE"
          },
          {
            "atomIds": [
              3,
              1
            ],
            "bo": "SINGLE"
          },
          {
            "atomIds": [
              4,
              3
            ],
            "bo": "SINGLE"
          },
          {
            "atomIds": [
              5,
              3
            ],
            "bo": "SINGLE"
          },
          {
            "atomIds": [
              6,
              3
            ],
            "bo": "SINGLE"
          },
          {
            "atomIds": [
              7,
              6
            ],
            "bo": "SINGLE"
          },
          {
            "atomIds": [
              8,
              6
            ],
            "bo": "SINGLE"
          },
          {
            "atomIds": [
              9,
              6
            ],
            "bo": "SINGLE"
          },
          {
            "atomIds": [
              9,
              12
            ],
            "bo": "SINGLE"
          },
          {
            "atomIds": [
              10,
              9
            ],
            "bo": "SINGLE"
          },
          {
            "atomIds": [
              11,
              9
            ],
            "bo": "SINGLE"
          },
          {
            "atomIds": [
              12,
              0
            ],
            "bo": "SINGLE"
          },
          {
            "atomIds": [
              12,
              13
            ],
            "bo": "SINGLE"
          },
          {
            "atomIds": [
              14,
              12
            ],
            "bo": "SINGLE"
          },
          {
            "atomIds": [
              15,
              14
            ],
            "bo": "SINGLE"
          },
          {
            "atomIds": [
              16,
              14
            ],
            "bo": "SINGLE"
          },
          {
            "atomIds": [
              17,
              14
            ],
            "bo": "SINGLE"
          },
          {
            "atomIds": [
              17,
              20
            ],
            "bo": "SINGLE"
          },
          {
            "atomIds": [
              18,
              17
            ],
            "bo": "SINGLE"
          },
          {
            "atomIds": [
              19,
              17
            ],
            "bo": "SINGLE"
          },
          {
            "atomIds": [
              20,
              1
            ],
            "bo": "SINGLE"
          },
          {
            "atomIds": [
              21,
              20
            ],
            "bo": "SINGLE"
          },
          {
            "atomIds": [
              22,
              20
            ],
            "bo": "SINGLE"
          }
        ]
      },
      "vertexId": 102,
      "buildingBlockId": 39,
      "buildingBlockType": "FRAGMENT",
      "isRCV": false,
      "properties": {
        "ATTACHMENT_POINTS": "1#LPhosphineSubM:0:SINGLE:7.9272%-2.5174%6.3831,MPhosphine:1:SINGLE:5.3681%-0.8345%7.9017 "
      },
      "uniquefyingPropertyKeys": [],
      "allowedMutationTypes": [
        "DELETE",
        "EXTEND",
        "CHANGEBRANCH",
        "CHANGELINK",
        "ADDLINK",
        "DELETELINK",
        "DELETECHAIN"
      ],
      "vertexType": "MolecularFragment"
    },
    {
      "lstAPs": [
        {
          "id": 93981,
          "atomPositionNumber": 0,
          "atomPositionNumberInMol": 37,
          "apClass": {
            "rule": "Xlig",
            "subClass": 1,
            "bndTyp": "SINGLE"
          },
          "dirVec": {
            "x": -0.1753,
            "y": 0.0948,
            "z": -0.4464
          }
        }
      ],
      "lstSymAPs": [],
      "mol": {
        "atoms": [
          {
            "elSymbol": "O",
            "p3d": {
              "x": -0.3534,
              "y": 2.1044,
              "z": -0.7339
            }
          },
          {
            "elSymbol": "C",
            "p3d": {
              "x": -0.5345,
              "y": 2.7646,
              "z": 0.4801
            }
          },
          {
            "elSymbol": "H",
            "p3d": {
              "x": -0.3728,
              "y": 3.8337,
              "z": 0.2724
            }
          },
          {
            "elSymbol": "H",
            "p3d": {
              "x": 0.1816,
              "y": 2.4161,
              "z": 1.2384
            }
          },
          {
            "elSymbol": "H",
            "p3d": {
              "x": -1.553,
              "y": 2.6149,
              "z": 0.8489
            }
          }
        ],
        "bonds": [
          {
            "atomIds": [
              1,
              2
            ],
            "bo": "SINGLE"
          },
          {
            "atomIds": [
              1,
              3
            ],
            "bo": "SINGLE"
          },
          {
            "atomIds": [
              1,
              4
            ],
            "bo": "SINGLE"
          },
          {
            "atomIds": [
              0,
              1
            ],
            "bo": "SINGLE"
          }
        ]
      },
      "vertexId": 86,
      "buildingBlockId": 64,
      "buildingBlockType": "FRAGMENT",
      "isRCV": false,
      "properties": {
        "ATTACHMENT_POINTS": "1#Xlig:1:SINGLE:-0.1753%0.0948%-0.4464 "
      },
      "uniquefyingPropertyKeys": [],
      "allowedMutationTypes": [
        "DELETE",
        "EXTEND",
        "CHANGEBRANCH",
        "CHANGELINK",
        "ADDLINK",
        "DELETELINK",
        "DELETECHAIN"
      ],
      "vertexType": "MolecularFragment"
    },
    {
      "lstAPs": [
        {
          "id": 94012,
          "atomPositionNumber": 0,
          "atomPositionNumberInMol": 33,
          "apClass": {
            "rule": "me",
            "subClass": 1,
            "bndTyp": "SINGLE"
          },
          "dirVec": {
            "x": 6.4052,
            "y": 0.4666,
            "z": 7.6784
          }
        }
      ],
      "lstSymAPs": [],
      "mol": {
        "atoms": [
          {
            "elSymbol": "C",
            "p3d": {
              "x": 5.1845,
              "y": -0.3158,
              "z": 7.9034
            }
          },
          {
            "elSymbol": "H",
            "p3d": {
              "x": 4.4018,
              "y": 0.0156,
              "z": 7.2277
            }
          },
          {
            "elSymbol": "H",
            "p3d": {
              "x": 4.8466,
              "y": -0.2064,
              "z": 8.9326
            }
          },
          {
            "elSymbol": "H",
            "p3d": {
              "x": 5.4032,
              "y": -1.3837,
              "z": 7.7252
            }
          }
        ],
        "bonds": [
          {
            "atomIds": [
              1,
              0
            ],
            "bo": "SINGLE"
          },
          {
            "atomIds": [
              2,
              0
            ],
            "bo": "SINGLE"
          },
          {
            "atomIds": [
              3,
              0
            ],
            "bo": "SINGLE"
          }
        ]
      },
      "vertexId": 70913,
      "buildingBlockId": 1,
      "buildingBlockType": "CAP",
      "isRCV": false,
      "properties": {
        "ATTACHMENT_POINTS": "1#me:1:SINGLE:6.4052%0.4666%7.6784 "
      },
      "uniquefyingPropertyKeys": [],
      "allowedMutationTypes": [
        "DELETE",
        "EXTEND",
        "CHANGEBRANCH",
        "CHANGELINK",
        "ADDLINK",
        "DELETELINK",
        "DELETECHAIN"
      ],
      "vertexType": "MolecularFragment"
    }
  ],
  "gEdges": [
    {
      "srcAPID": 93975,
      "trgAPID": 93978,
      "bondType": "SINGLE"
    },
    {
      "srcAPID": 93977,
      "trgAPID": 93980,
      "bondType": "SINGLE"
    },
    {
      "srcAPID": 93976,
      "trgAPID": 93981,
      "bondType": "SINGLE"
    },
    {
      "srcAPID": 93979,
      "trgAPID": 94012,
      "bondType": "SINGLE"
    }
  ],
  "gRings": [],
  "symVertices": []
}

> <SMILES>
[Pt](C#O)(OC([H])([H])[H])([P]1(C2([H])C([H])([H])C([H])([H])C(C1([H])C([H])([H])C(C2([H])[H])([H])[H])([H])[H])C([H])([H])[H])OC([H])([H])[H]

$$$$
