M00009240
  CDK     04222212003D

 37 38  0  0  0  0  0  0  0  0999 V2000
   -0.5194   -2.1768   -0.2940 Pt  0  0  0  0  0  0  0  0  0  0  0  0
   -0.8964   -4.0849   -0.3496 C   0  0  0  0  0  0  0  0  0  0  0  0
   -1.1237   -5.2029   -0.4003 O   0  0  0  0  0  0  0  0  0  0  0  0
   -2.3622   -1.8488    0.4006 C   0  0  0  0  0  0  0  0  0  0  0  0
   -3.4294   -1.6622    0.8021 N   0  0  0  0  0  0  0  0  0  0  0  0
   -0.1005    0.0715   -0.3023 P   0  0  0  0  0  0  0  0  0  0  0  0
   -1.6651    1.0453   -0.6782 C   0  0  0  0  0  0  0  0  0  0  0  0
   -2.4707    0.8028    0.0493 H   0  0  0  0  0  0  0  0  0  0  0  0
   -1.4910    2.1335   -0.5816 H   0  0  0  0  0  0  0  0  0  0  0  0
   -2.0781    0.6669   -2.0991 C   0  0  0  0  0  0  0  0  0  0  0  0
   -2.3452   -0.4132   -2.1623 H   0  0  0  0  0  0  0  0  0  0  0  0
   -3.0234    1.1977   -2.3471 H   0  0  0  0  0  0  0  0  0  0  0  0
   -1.0201    1.0146   -3.1582 C   0  0  0  0  0  0  0  0  0  0  0  0
   -0.8046    2.1006   -3.1354 H   0  0  0  0  0  0  0  0  0  0  0  0
   -1.4441    0.8200   -4.1646 H   0  0  0  0  0  0  0  0  0  0  0  0
    0.2851    0.2173   -3.0077 C   0  0  0  0  0  0  0  0  0  0  0  0
    0.9456    0.4413   -3.8739 H   0  0  0  0  0  0  0  0  0  0  0  0
    0.0809   -0.8749   -3.0934 H   0  0  0  0  0  0  0  0  0  0  0  0
    1.0455    0.5317   -1.7209 C   0  0  0  0  0  0  0  0  0  0  0  0
    1.3361    1.5978   -1.6705 H   0  0  0  0  0  0  0  0  0  0  0  0
    1.9964   -0.0429   -1.6686 H   0  0  0  0  0  0  0  0  0  0  0  0
    0.6226    0.7285    1.2580 C   0  0  0  0  0  0  0  0  0  0  0  0
    1.7194    1.8599    3.5595 C   0  0  0  0  0  0  0  0  0  0  0  0
    0.8798   -0.0918    2.3644 C   0  0  0  0  0  0  0  0  0  0  0  0
    0.9085    2.1002    1.2954 C   0  0  0  0  0  0  0  0  0  0  0  0
    1.4567    2.6682    2.4439 C   0  0  0  0  0  0  0  0  0  0  0  0
    1.4348    0.4984    3.5207 C   0  0  0  0  0  0  0  0  0  0  0  0
    0.7134    2.7520    0.4405 H   0  0  0  0  0  0  0  0  0  0  0  0
    1.6811    3.7327    2.4784 H   0  0  0  0  0  0  0  0  0  0  0  0
    1.6426   -0.1214    4.3931 H   0  0  0  0  0  0  0  0  0  0  0  0
    2.1485    2.3023    4.4600 H   0  0  0  0  0  0  0  0  0  0  0  0
    0.5981   -1.5592    2.3848 C   0  0  0  0  0  0  0  0  0  0  0  0
    1.1796   -2.1122    1.6200 H   0  0  0  0  0  0  0  0  0  0  0  0
   -0.4776   -1.7863    2.2444 H   0  0  0  0  0  0  0  0  0  0  0  0
    0.8695   -2.0228    3.3469 H   0  0  0  0  0  0  0  0  0  0  0  0
    1.3213   -2.5359   -0.9786 C   0  0  0  0  0  0  0  0  0  0  0  0
    2.3857   -2.7470   -1.3756 N   0  0  0  0  0  0  0  0  0  0  0  0
  2  3  3  0  0  0  0
  1  2  1  0  0  0  0
  4  5  3  0  0  0  0
  1  4  1  0  0  0  0
  7  6  1  0  0  0  0
  8  7  1  0  0  0  0
  9  7  1  0  0  0  0
 10  7  1  0  0  0  0
 11 10  1  0  0  0  0
 12 10  1  0  0  0  0
 13 10  1  0  0  0  0
 14 13  1  0  0  0  0
 15 13  1  0  0  0  0
 16 13  1  0  0  0  0
 16 19  1  0  0  0  0
 17 16  1  0  0  0  0
 18 16  1  0  0  0  0
 19  6  1  0  0  0  0
 20 19  1  0  0  0  0
 21 19  1  0  0  0  0
  1  6  1  0  0  0  0
 22 25  1  0  0  0  0
 25 26  2  0  0  0  0
 23 26  1  0  0  0  0
 23 27  2  0  0  0  0
 24 27  1  0  0  0  0
 22 24  2  0  0  0  0
 26 29  1  0  0  0  0
 27 30  1  0  0  0  0
 23 31  1  0  0  0  0
 25 28  1  0  0  0  0
 32 33  1  0  0  0  0
 32 34  1  0  0  0  0
 32 35  1  0  0  0  0
 24 32  1  0  0  0  0
  6 22  1  0  0  0  0
 36 37  3  0  0  0  0
  1 36  1  0  0  0  0
M  END
> <PM6_ENERGY>
89.602

> <UID>
YITXMVQXIHUBNV-KIBVSWRUNA-N

> <FITNESS>
1.142

> <GCODE>
10215

> <GraphENC>
10215 72_1_0,81_66_1,105_43_1,87_66_1,207821_37_1, 72_0_81_0_SINGLE_Xlig:0_Xlig:1,72_2_105_1_SINGLE_scaff:0_MPhosphine:1,72_1_87_0_SINGLE_Xlig:0_Xlig:1,105_0_207821_0_SINGLE_LPhosphineSubM:0_SubArM:1, 

> <GraphJson>
{
  "graphId": 10215,
  "gVertices": [
    {
      "lstAPs": [
        {
          "id": 271585,
          "atomPositionNumber": 0,
          "atomPositionNumberInMol": 0,
          "apClass": {
            "rule": "Xlig",
            "subClass": 0,
            "bndTyp": "SINGLE"
          },
          "dirVec": {
            "x": -2.3339,
            "y": -0.0087,
            "z": 0.8172
          }
        },
        {
          "id": 271586,
          "atomPositionNumber": 0,
          "atomPositionNumberInMol": 0,
          "apClass": {
            "rule": "Xlig",
            "subClass": 0,
            "bndTyp": "SINGLE"
          },
          "dirVec": {
            "x": 2.336,
            "y": -5.0E-4,
            "z": 0.829
          }
        },
        {
          "id": 271587,
          "atomPositionNumber": 0,
          "atomPositionNumberInMol": 0,
          "apClass": {
            "rule": "scaff",
            "subClass": 0,
            "bndTyp": "SINGLE"
          },
          "dirVec": {
            "x": -0.0095,
            "y": 0.0046,
            "z": -1.7113
          }
        }
      ],
      "lstSymAPs": [
        {
          "symIds": [
            0,
            1
          ]
        }
      ],
      "mol": {
        "atoms": [
          {
            "elSymbol": "Pt",
            "p3d": {
              "x": -0.0098,
              "y": 0.0049,
              "z": 0.6289
            }
          },
          {
            "elSymbol": "C",
            "p3d": {
              "x": -6.0E-4,
              "y": 0.0016,
              "z": 2.5609
            }
          },
          {
            "elSymbol": "O",
            "p3d": {
              "x": 0.0025,
              "y": -0.0041,
              "z": 3.6974
            }
          },
          {
            "elSymbol": "Du",
            "p3d": {
              "x": -0.007,
              "y": 1.0013,
              "z": 0.6372
            }
          },
          {
            "elSymbol": "Du",
            "p3d": {
              "x": -0.0014,
              "y": 0.9902,
              "z": 2.5698
            }
          }
        ],
        "bonds": [
          {
            "atomIds": [
              1,
              2
            ],
            "bo": "TRIPLE"
          },
          {
            "atomIds": [
              0,
              1
            ],
            "bo": "SINGLE"
          },
          {
            "atomIds": [
              3,
              0
            ],
            "bo": "SINGLE"
          },
          {
            "atomIds": [
              4,
              1
            ],
            "bo": "SINGLE"
          }
        ]
      },
      "vertexId": 72,
      "buildingBlockId": 0,
      "buildingBlockType": "SCAFFOLD",
      "isRCV": false,
      "properties": {
        "ATTACHMENT_POINTS": "1#Xlig:0:SINGLE:-2.3339%-0.0087%0.8172,Xlig:0:SINGLE:2.3360%-0.0005%0.8290,scaff:0:SINGLE:-0.0095%0.0046%-1.7113 "
      },
      "uniquefyingPropertyKeys": [],
      "allowedMutationTypes": [
        "DELETE",
        "EXTEND",
        "CHANGEBRANCH",
        "CHANGELINK",
        "ADDLINK",
        "DELETELINK",
        "DELETECHAIN"
      ],
      "vertexType": "MolecularFragment"
    },
    {
      "lstAPs": [
        {
          "id": 271588,
          "atomPositionNumber": 0,
          "atomPositionNumberInMol": 5,
          "apClass": {
            "rule": "Xlig",
            "subClass": 1,
            "bndTyp": "SINGLE"
          },
          "dirVec": {
            "x": 0.0192,
            "y": -0.0048,
            "z": -0.5645
          }
        }
      ],
      "lstSymAPs": [],
      "mol": {
        "atoms": [
          {
            "elSymbol": "C",
            "p3d": {
              "x": -1.967,
              "y": -0.0075,
              "z": -0.4937
            }
          },
          {
            "elSymbol": "N",
            "p3d": {
              "x": -3.1263,
              "y": -0.0054,
              "z": -0.4354
            }
          },
          {
            "elSymbol": "Du",
            "p3d": {
              "x": -1.9744,
              "y": 0.9926,
              "z": -0.5036
            }
          }
        ],
        "bonds": [
          {
            "atomIds": [
              0,
              1
            ],
            "bo": "TRIPLE"
          },
          {
            "atomIds": [
              2,
              0
            ],
            "bo": "SINGLE"
          }
        ]
      },
      "vertexId": 81,
      "buildingBlockId": 65,
      "buildingBlockType": "FRAGMENT",
      "isRCV": false,
      "properties": {
        "ATTACHMENT_POINTS": "1#Xlig:1:SINGLE:0.0192%-0.0048%-0.5645 "
      },
      "uniquefyingPropertyKeys": [],
      "allowedMutationTypes": [
        "DELETE",
        "EXTEND",
        "CHANGEBRANCH",
        "CHANGELINK",
        "ADDLINK",
        "DELETELINK",
        "DELETECHAIN"
      ],
      "vertexType": "MolecularFragment"
    },
    {
      "lstAPs": [
        {
          "id": 271589,
          "atomPositionNumber": 0,
          "atomPositionNumberInMol": 8,
          "apClass": {
            "rule": "LPhosphineSubM",
            "subClass": 0,
            "bndTyp": "SINGLE"
          },
          "dirVec": {
            "x": -1.1846,
            "y": 9.2743,
            "z": 11.0929
          }
        },
        {
          "id": 271590,
          "atomPositionNumber": 0,
          "atomPositionNumberInMol": 8,
          "apClass": {
            "rule": "MPhosphine",
            "subClass": 1,
            "bndTyp": "SINGLE"
          },
          "dirVec": {
            "x": 0.7356,
            "y": 6.5277,
            "z": 10.7143
          }
        }
      ],
      "lstSymAPs": [],
      "mol": {
        "atoms": [
          {
            "elSymbol": "P",
            "p3d": {
              "x": 0.3777,
              "y": 8.7188,
              "z": 10.3566
            }
          },
          {
            "elSymbol": "C",
            "p3d": {
              "x": 0.3703,
              "y": 9.4545,
              "z": 8.6907
            }
          },
          {
            "elSymbol": "H",
            "p3d": {
              "x": -0.3722,
              "y": 8.9257,
              "z": 8.0745
            }
          },
          {
            "elSymbol": "H",
            "p3d": {
              "x": 0.0532,
              "y": 10.4926,
              "z": 8.7648
            }
          },
          {
            "elSymbol": "C",
            "p3d": {
              "x": 1.7376,
              "y": 9.3835,
              "z": 8.006
            }
          },
          {
            "elSymbol": "H",
            "p3d": {
              "x": 2.0419,
              "y": 8.3396,
              "z": 7.8978
            }
          },
          {
            "elSymbol": "H",
            "p3d": {
              "x": 1.6558,
              "y": 9.7991,
              "z": 7.0025
            }
          },
          {
            "elSymbol": "C",
            "p3d": {
              "x": 2.7947,
              "y": 10.1457,
              "z": 8.774
            }
          },
          {
            "elSymbol": "H",
            "p3d": {
              "x": 2.5157,
              "y": 11.1973,
              "z": 8.8416
            }
          },
          {
            "elSymbol": "H",
            "p3d": {
              "x": 3.7443,
              "y": 10.0811,
              "z": 8.2528
            }
          },
          {
            "elSymbol": "C",
            "p3d": {
              "x": 2.9937,
              "y": 9.6061,
              "z": 10.2064
            }
          },
          {
            "elSymbol": "H",
            "p3d": {
              "x": 3.7985,
              "y": 10.1828,
              "z": 10.6765
            }
          },
          {
            "elSymbol": "H",
            "p3d": {
              "x": 3.2993,
              "y": 8.5721,
              "z": 10.1385
            }
          },
          {
            "elSymbol": "C",
            "p3d": {
              "x": 1.7325,
              "y": 9.7184,
              "z": 11.0567
            }
          },
          {
            "elSymbol": "H",
            "p3d": {
              "x": 1.4263,
              "y": 10.7573,
              "z": 11.1135
            }
          },
          {
            "elSymbol": "H",
            "p3d": {
              "x": 1.9542,
              "y": 9.3693,
              "z": 12.0604
            }
          }
        ],
        "bonds": [
          {
            "atomIds": [
              1,
              0
            ],
            "bo": "SINGLE"
          },
          {
            "atomIds": [
              2,
              1
            ],
            "bo": "SINGLE"
          },
          {
            "atomIds": [
              3,
              1
            ],
            "bo": "SINGLE"
          },
          {
            "atomIds": [
              4,
              1
            ],
            "bo": "SINGLE"
          },
          {
            "atomIds": [
              5,
              4
            ],
            "bo": "SINGLE"
          },
          {
            "atomIds": [
              6,
              4
            ],
            "bo": "SINGLE"
          },
          {
            "atomIds": [
              7,
              4
            ],
            "bo": "SINGLE"
          },
          {
            "atomIds": [
              8,
              7
            ],
            "bo": "SINGLE"
          },
          {
            "atomIds": [
              9,
              7
            ],
            "bo": "SINGLE"
          },
          {
            "atomIds": [
              10,
              7
            ],
            "bo": "SINGLE"
          },
          {
            "atomIds": [
              10,
              13
            ],
            "bo": "SINGLE"
          },
          {
            "atomIds": [
              11,
              10
            ],
            "bo": "SINGLE"
          },
          {
            "atomIds": [
              12,
              10
            ],
            "bo": "SINGLE"
          },
          {
            "atomIds": [
              13,
              0
            ],
            "bo": "SINGLE"
          },
          {
            "atomIds": [
              14,
              13
            ],
            "bo": "SINGLE"
          },
          {
            "atomIds": [
              15,
              13
            ],
            "bo": "SINGLE"
          }
        ]
      },
      "vertexId": 105,
      "buildingBlockId": 42,
      "buildingBlockType": "FRAGMENT",
      "isRCV": false,
      "properties": {
        "ATTACHMENT_POINTS": "1#LPhosphineSubM:0:SINGLE:-1.1846%9.2743%11.0929,MPhosphine:1:SINGLE:0.7356%6.5277%10.7143 "
      },
      "uniquefyingPropertyKeys": [],
      "allowedMutationTypes": [
        "DELETE",
        "EXTEND",
        "CHANGEBRANCH",
        "CHANGELINK",
        "ADDLINK",
        "DELETELINK",
        "DELETECHAIN"
      ],
      "vertexType": "MolecularFragment"
    },
    {
      "lstAPs": [
        {
          "id": 271591,
          "atomPositionNumber": 0,
          "atomPositionNumberInMol": 38,
          "apClass": {
            "rule": "Xlig",
            "subClass": 1,
            "bndTyp": "SINGLE"
          },
          "dirVec": {
            "x": 0.0192,
            "y": -0.0048,
            "z": -0.5645
          }
        }
      ],
      "lstSymAPs": [],
      "mol": {
        "atoms": [
          {
            "elSymbol": "C",
            "p3d": {
              "x": -1.967,
              "y": -0.0075,
              "z": -0.4937
            }
          },
          {
            "elSymbol": "N",
            "p3d": {
              "x": -3.1263,
              "y": -0.0054,
              "z": -0.4354
            }
          },
          {
            "elSymbol": "Du",
            "p3d": {
              "x": -1.9744,
              "y": 0.9926,
              "z": -0.5036
            }
          }
        ],
        "bonds": [
          {
            "atomIds": [
              0,
              1
            ],
            "bo": "TRIPLE"
          },
          {
            "atomIds": [
              2,
              0
            ],
            "bo": "SINGLE"
          }
        ]
      },
      "vertexId": 87,
      "buildingBlockId": 65,
      "buildingBlockType": "FRAGMENT",
      "isRCV": false,
      "properties": {
        "ATTACHMENT_POINTS": "1#Xlig:1:SINGLE:0.0192%-0.0048%-0.5645 "
      },
      "uniquefyingPropertyKeys": [],
      "allowedMutationTypes": [
        "DELETE",
        "EXTEND",
        "CHANGEBRANCH",
        "CHANGELINK",
        "ADDLINK",
        "DELETELINK",
        "DELETECHAIN"
      ],
      "vertexType": "MolecularFragment"
    },
    {
      "lstAPs": [
        {
          "id": 271616,
          "atomPositionNumber": 0,
          "atomPositionNumberInMol": 24,
          "apClass": {
            "rule": "SubArM",
            "subClass": 1,
            "bndTyp": "SINGLE"
          },
          "dirVec": {
            "x": 0.3016,
            "y": 0.3831,
            "z": -0.6449
          }
        }
      ],
      "lstSymAPs": [],
      "mol": {
        "atoms": [
          {
            "elSymbol": "C",
            "p3d": {
              "x": 1.7096,
              "y": 0.5525,
              "z": -1.2136
            }
          },
          {
            "elSymbol": "C",
            "p3d": {
              "x": 4.2502,
              "y": 0.8767,
              "z": -2.2636
            }
          },
          {
            "elSymbol": "C",
            "p3d": {
              "x": 2.3368,
              "y": 1.7899,
              "z": -1.1199
            }
          },
          {
            "elSymbol": "C",
            "p3d": {
              "x": 2.344,
              "y": -0.5151,
              "z": -1.819
            }
          },
          {
            "elSymbol": "C",
            "p3d": {
              "x": 3.6162,
              "y": -0.3625,
              "z": -2.3439
            }
          },
          {
            "elSymbol": "C",
            "p3d": {
              "x": 3.6039,
              "y": 1.9353,
              "z": -1.6584
            }
          },
          {
            "elSymbol": "H",
            "p3d": {
              "x": 1.8411,
              "y": -1.493,
              "z": -1.8837
            }
          },
          {
            "elSymbol": "H",
            "p3d": {
              "x": 4.113,
              "y": -1.2006,
              "z": -2.8069
            }
          },
          {
            "elSymbol": "H",
            "p3d": {
              "x": 4.1107,
              "y": 2.9115,
              "z": -1.5913
            }
          },
          {
            "elSymbol": "H",
            "p3d": {
              "x": 5.2516,
              "y": 0.992,
              "z": -2.67
            }
          },
          {
            "elSymbol": "C",
            "p3d": {
              "x": 1.6301,
              "y": 2.9729,
              "z": -0.4606
            }
          },
          {
            "elSymbol": "H",
            "p3d": {
              "x": 2.3743,
              "y": 3.6775,
              "z": -0.0646
            }
          },
          {
            "elSymbol": "H",
            "p3d": {
              "x": 1.0016,
              "y": 2.6144,
              "z": 0.3512
            }
          },
          {
            "elSymbol": "H",
            "p3d": {
              "x": 1.0097,
              "y": 3.4845,
              "z": -1.1971
            }
          }
        ],
        "bonds": [
          {
            "atomIds": [
              0,
              3
            ],
            "bo": "SINGLE"
          },
          {
            "atomIds": [
              3,
              4
            ],
            "bo": "DOUBLE"
          },
          {
            "atomIds": [
              1,
              4
            ],
            "bo": "SINGLE"
          },
          {
            "atomIds": [
              1,
              5
            ],
            "bo": "DOUBLE"
          },
          {
            "atomIds": [
              2,
              5
            ],
            "bo": "SINGLE"
          },
          {
            "atomIds": [
              0,
              2
            ],
            "bo": "DOUBLE"
          },
          {
            "atomIds": [
              4,
              7
            ],
            "bo": "SINGLE"
          },
          {
            "atomIds": [
              5,
              8
            ],
            "bo": "SINGLE"
          },
          {
            "atomIds": [
              1,
              9
            ],
            "bo": "SINGLE"
          },
          {
            "atomIds": [
              3,
              6
            ],
            "bo": "SINGLE"
          },
          {
            "atomIds": [
              10,
              11
            ],
            "bo": "SINGLE"
          },
          {
            "atomIds": [
              10,
              12
            ],
            "bo": "SINGLE"
          },
          {
            "atomIds": [
              10,
              13
            ],
            "bo": "SINGLE"
          },
          {
            "atomIds": [
              2,
              10
            ],
            "bo": "SINGLE"
          }
        ]
      },
      "vertexId": 207821,
      "buildingBlockId": 36,
      "buildingBlockType": "FRAGMENT",
      "isRCV": false,
      "properties": {
        "ATTACHMENT_POINTS": "1#SubArM:1:SINGLE:0.3016%0.3831%-0.6449 "
      },
      "uniquefyingPropertyKeys": [],
      "allowedMutationTypes": [
        "DELETE",
        "EXTEND",
        "CHANGEBRANCH",
        "CHANGELINK",
        "ADDLINK",
        "DELETELINK",
        "DELETECHAIN"
      ],
      "vertexType": "MolecularFragment"
    }
  ],
  "gEdges": [
    {
      "srcAPID": 271585,
      "trgAPID": 271588,
      "bondType": "SINGLE"
    },
    {
      "srcAPID": 271587,
      "trgAPID": 271590,
      "bondType": "SINGLE"
    },
    {
      "srcAPID": 271586,
      "trgAPID": 271591,
      "bondType": "SINGLE"
    },
    {
      "srcAPID": 271589,
      "trgAPID": 271616,
      "bondType": "SINGLE"
    }
  ],
  "gRings": [],
  "symVertices": []
}

> <SMILES>
[Pt](C#O)(C#N)([P]1(C([H])([H])C([H])([H])C([H])([H])C(C1([H])[H])([H])[H])C=2C(=C(C(=C(C2C([H])([H])[H])[H])[H])[H])[H])C#N

$$$$
