M00001213
  CDK     04222209053D

 53 55  0  0  0  0  0  0  0  0999 V2000
   -2.2658    0.2032   -0.3463 Pt  0  0  0  0  0  0  0  0  0  0  0  0
   -4.2063    0.3027   -0.2315 C   0  0  0  0  0  0  0  0  0  0  0  0
   -5.3451    0.3556   -0.1590 O   0  0  0  0  0  0  0  0  0  0  0  0
   -2.3969    2.5385   -0.5359 S   0  0  0  0  0  0  0  0  0  0  0  0
   -2.7899    2.6238   -2.3049 C   0  0  0  0  0  0  0  0  0  0  0  0
   -3.8276    2.3324   -2.4916 H   0  0  0  0  0  0  0  0  0  0  0  0
   -2.1202    1.9689   -2.8857 H   0  0  0  0  0  0  0  0  0  0  0  0
   -2.6563    3.6564   -2.6471 H   0  0  0  0  0  0  0  0  0  0  0  0
    0.0214    0.0589   -0.4180 P   0  0  0  0  0  0  0  0  0  0  0  0
    0.9000    1.3183   -1.5183 C   0  0  0  0  0  0  0  0  0  0  0  0
    0.6237    2.3600   -1.2091 H   0  0  0  0  0  0  0  0  0  0  0  0
    2.4069    1.1163   -1.3288 C   0  0  0  0  0  0  0  0  0  0  0  0
    2.7028    1.3872   -0.2922 H   0  0  0  0  0  0  0  0  0  0  0  0
    2.9354    1.8577   -1.9690 H   0  0  0  0  0  0  0  0  0  0  0  0
    2.9596   -0.2765   -1.6738 C   0  0  0  0  0  0  0  0  0  0  0  0
    4.0248   -0.3172   -1.3694 H   0  0  0  0  0  0  0  0  0  0  0  0
    2.9614   -0.3890   -2.7836 H   0  0  0  0  0  0  0  0  0  0  0  0
    2.2325   -1.4864   -1.0657 C   0  0  0  0  0  0  0  0  0  0  0  0
    2.6372   -2.4028   -1.5500 H   0  0  0  0  0  0  0  0  0  0  0  0
    2.5142   -1.5903    0.0096 H   0  0  0  0  0  0  0  0  0  0  0  0
    0.7075   -1.5153   -1.2012 C   0  0  0  0  0  0  0  0  0  0  0  0
    0.3051   -2.4194   -0.6729 H   0  0  0  0  0  0  0  0  0  0  0  0
    0.1624   -1.5088   -2.6349 C   0  0  0  0  0  0  0  0  0  0  0  0
   -0.9513   -1.5736   -2.6176 H   0  0  0  0  0  0  0  0  0  0  0  0
    0.4816   -2.4512   -3.1316 H   0  0  0  0  0  0  0  0  0  0  0  0
    0.5961   -0.3320   -3.5229 C   0  0  0  0  0  0  0  0  0  0  0  0
    1.6729   -0.4526   -3.7810 H   0  0  0  0  0  0  0  0  0  0  0  0
    0.0509   -0.4003   -4.4863 H   0  0  0  0  0  0  0  0  0  0  0  0
    0.3781    1.0726   -2.9389 C   0  0  0  0  0  0  0  0  0  0  0  0
    0.8646    1.8064   -3.6176 H   0  0  0  0  0  0  0  0  0  0  0  0
   -0.7130    1.3273   -2.9899 H   0  0  0  0  0  0  0  0  0  0  0  0
    0.6362    0.2764    1.3692 C   0  0  0  0  0  0  0  0  0  0  0  0
   -0.0157    1.2747    3.5920 C   0  0  0  0  0  0  0  0  0  0  0  0
    1.3380   -0.8624    3.5042 C   0  0  0  0  0  0  0  0  0  0  0  0
    0.2837   -0.0628    4.2813 C   0  0  0  0  0  0  0  0  0  0  0  0
    0.9099   -1.0734    2.0427 C   0  0  0  0  0  0  0  0  0  0  0  0
   -0.4377    1.0734    2.1264 C   0  0  0  0  0  0  0  0  0  0  0  0
    0.8746    1.9302    3.6402 H   0  0  0  0  0  0  0  0  0  0  0  0
    2.3103   -0.3348    3.5410 H   0  0  0  0  0  0  0  0  0  0  0  0
   -0.6476   -0.6553    4.3696 H   0  0  0  0  0  0  0  0  0  0  0  0
   -0.0004   -1.7233    2.0299 H   0  0  0  0  0  0  0  0  0  0  0  0
   -1.4248    0.5529    2.1027 H   0  0  0  0  0  0  0  0  0  0  0  0
    1.5877    0.8672    1.3514 H   0  0  0  0  0  0  0  0  0  0  0  0
   -0.8165    1.8099    4.1374 H   0  0  0  0  0  0  0  0  0  0  0  0
    1.5033   -1.8422    3.9905 H   0  0  0  0  0  0  0  0  0  0  0  0
    0.6310    0.1149    5.3163 H   0  0  0  0  0  0  0  0  0  0  0  0
    1.7082   -1.6340    1.5079 H   0  0  0  0  0  0  0  0  0  0  0  0
   -0.6052    2.0726    1.6667 H   0  0  0  0  0  0  0  0  0  0  0  0
   -2.6095   -2.1048   -0.1167 S   0  0  0  0  0  0  0  0  0  0  0  0
   -2.5336   -2.1903    1.6937 C   0  0  0  0  0  0  0  0  0  0  0  0
   -3.0922   -1.3689    2.1530 H   0  0  0  0  0  0  0  0  0  0  0  0
   -1.4893   -2.1524    2.0445 H   0  0  0  0  0  0  0  0  0  0  0  0
   -2.9770   -3.1379    2.0211 H   0  0  0  0  0  0  0  0  0  0  0  0
  2  3  3  0  0  0  0
  1  2  1  0  0  0  0
  5  6  1  0  0  0  0
  5  7  1  0  0  0  0
  5  8  1  0  0  0  0
  4  5  1  0  0  0  0
  1  4  1  0  0  0  0
 10  9  1  0  0  0  0
 10 11  1  0  0  0  0
 12 10  1  0  0  0  0
 13 12  1  0  0  0  0
 14 12  1  0  0  0  0
 15 12  1  0  0  0  0
 16 15  1  0  0  0  0
 17 15  1  0  0  0  0
 18 15  1  0  0  0  0
 18 21  1  0  0  0  0
 19 18  1  0  0  0  0
 20 18  1  0  0  0  0
 21  9  1  0  0  0  0
 21 22  1  0  0  0  0
 23 21  1  0  0  0  0
 24 23  1  0  0  0  0
 25 23  1  0  0  0  0
 26 23  1  0  0  0  0
 26 29  1  0  0  0  0
 27 26  1  0  0  0  0
 28 26  1  0  0  0  0
 29 10  1  0  0  0  0
 30 29  1  0  0  0  0
 31 29  1  0  0  0  0
  1  9  1  0  0  0  0
 32 43  1  0  0  0  0
 32 36  1  0  0  0  0
 32 37  1  0  0  0  0
 33 38  1  0  0  0  0
 33 44  1  0  0  0  0
 33 35  1  0  0  0  0
 33 37  1  0  0  0  0
 34 39  1  0  0  0  0
 34 45  1  0  0  0  0
 34 36  1  0  0  0  0
 34 35  1  0  0  0  0
 35 40  1  0  0  0  0
 35 46  1  0  0  0  0
 36 41  1  0  0  0  0
 36 47  1  0  0  0  0
 37 42  1  0  0  0  0
 37 48  1  0  0  0  0
  9 32  1  0  0  0  0
 50 51  1  0  0  0  0
 50 52  1  0  0  0  0
 50 53  1  0  0  0  0
 49 50  1  0  0  0  0
  1 49  1  0  0  0  0
M  END
> <PM6_ENERGY>
-347.299

> <UID>
UVWSWTJSNASALO-CUIAUQNYNA-L

> <FITNESS>
1.14233

> <GCODE>
1814

> <GraphENC>
1814 72_1_0,79_64_1,102_40_1,85_64_1,32325_35_1, 72_0_79_0_SINGLE_Xlig:0_Xlig:1,72_2_102_1_SINGLE_scaff:0_MPhosphine:1,72_1_85_0_SINGLE_Xlig:0_Xlig:1,102_0_32325_0_SINGLE_LPhosphineSubM:0_SubRM:1, 

> <GraphJson>
{
  "graphId": 1814,
  "gVertices": [
    {
      "lstAPs": [
        {
          "id": 43723,
          "atomPositionNumber": 0,
          "atomPositionNumberInMol": 0,
          "apClass": {
            "rule": "Xlig",
            "subClass": 0,
            "bndTyp": "SINGLE"
          },
          "dirVec": {
            "x": -2.3339,
            "y": -0.0087,
            "z": 0.8172
          }
        },
        {
          "id": 43724,
          "atomPositionNumber": 0,
          "atomPositionNumberInMol": 0,
          "apClass": {
            "rule": "Xlig",
            "subClass": 0,
            "bndTyp": "SINGLE"
          },
          "dirVec": {
            "x": 2.336,
            "y": -5.0E-4,
            "z": 0.829
          }
        },
        {
          "id": 43725,
          "atomPositionNumber": 0,
          "atomPositionNumberInMol": 0,
          "apClass": {
            "rule": "scaff",
            "subClass": 0,
            "bndTyp": "SINGLE"
          },
          "dirVec": {
            "x": -0.0095,
            "y": 0.0046,
            "z": -1.7113
          }
        }
      ],
      "lstSymAPs": [
        {
          "symIds": [
            0,
            1
          ]
        }
      ],
      "mol": {
        "atoms": [
          {
            "elSymbol": "Pt",
            "p3d": {
              "x": -0.0098,
              "y": 0.0049,
              "z": 0.6289
            }
          },
          {
            "elSymbol": "C",
            "p3d": {
              "x": -6.0E-4,
              "y": 0.0016,
              "z": 2.5609
            }
          },
          {
            "elSymbol": "O",
            "p3d": {
              "x": 0.0025,
              "y": -0.0041,
              "z": 3.6974
            }
          },
          {
            "elSymbol": "Du",
            "p3d": {
              "x": -0.007,
              "y": 1.0013,
              "z": 0.6372
            }
          },
          {
            "elSymbol": "Du",
            "p3d": {
              "x": -0.0014,
              "y": 0.9902,
              "z": 2.5698
            }
          }
        ],
        "bonds": [
          {
            "atomIds": [
              1,
              2
            ],
            "bo": "TRIPLE"
          },
          {
            "atomIds": [
              0,
              1
            ],
            "bo": "SINGLE"
          },
          {
            "atomIds": [
              3,
              0
            ],
            "bo": "SINGLE"
          },
          {
            "atomIds": [
              4,
              1
            ],
            "bo": "SINGLE"
          }
        ]
      },
      "vertexId": 72,
      "buildingBlockId": 0,
      "buildingBlockType": "SCAFFOLD",
      "isRCV": false,
      "properties": {
        "ATTACHMENT_POINTS": "1#Xlig:0:SINGLE:-2.3339%-0.0087%0.8172,Xlig:0:SINGLE:2.3360%-0.0005%0.8290,scaff:0:SINGLE:-0.0095%0.0046%-1.7113 "
      },
      "uniquefyingPropertyKeys": [],
      "allowedMutationTypes": [
        "DELETE",
        "EXTEND",
        "CHANGEBRANCH",
        "CHANGELINK",
        "ADDLINK",
        "DELETELINK",
        "DELETECHAIN"
      ],
      "vertexType": "MolecularFragment"
    },
    {
      "lstAPs": [
        {
          "id": 43726,
          "atomPositionNumber": 0,
          "atomPositionNumberInMol": 5,
          "apClass": {
            "rule": "Xlig",
            "subClass": 1,
            "bndTyp": "SINGLE"
          },
          "dirVec": {
            "x": -0.102,
            "y": 0.0185,
            "z": -1.0265
          }
        }
      ],
      "lstSymAPs": [],
      "mol": {
        "atoms": [
          {
            "elSymbol": "S",
            "p3d": {
              "x": -0.3267,
              "y": 2.3403,
              "z": -1.0022
            }
          },
          {
            "elSymbol": "C",
            "p3d": {
              "x": -0.626,
              "y": 2.4866,
              "z": 0.7805
            }
          },
          {
            "elSymbol": "H",
            "p3d": {
              "x": 0.1766,
              "y": 3.089,
              "z": 1.2414
            }
          },
          {
            "elSymbol": "H",
            "p3d": {
              "x": -0.651,
              "y": 1.5065,
              "z": 1.2643
            }
          },
          {
            "elSymbol": "H",
            "p3d": {
              "x": -1.5658,
              "y": 2.981,
              "z": 0.9515
            }
          }
        ],
        "bonds": [
          {
            "atomIds": [
              1,
              2
            ],
            "bo": "SINGLE"
          },
          {
            "atomIds": [
              1,
              3
            ],
            "bo": "SINGLE"
          },
          {
            "atomIds": [
              1,
              4
            ],
            "bo": "SINGLE"
          },
          {
            "atomIds": [
              0,
              1
            ],
            "bo": "SINGLE"
          }
        ]
      },
      "vertexId": 79,
      "buildingBlockId": 63,
      "buildingBlockType": "FRAGMENT",
      "isRCV": false,
      "properties": {
        "ATTACHMENT_POINTS": "1#Xlig:1:SINGLE:-0.1020%0.0185%-1.0265 "
      },
      "uniquefyingPropertyKeys": [],
      "allowedMutationTypes": [
        "DELETE",
        "EXTEND",
        "CHANGEBRANCH",
        "CHANGELINK",
        "ADDLINK",
        "DELETELINK",
        "DELETECHAIN"
      ],
      "vertexType": "MolecularFragment"
    },
    {
      "lstAPs": [
        {
          "id": 43727,
          "atomPositionNumber": 0,
          "atomPositionNumberInMol": 10,
          "apClass": {
            "rule": "LPhosphineSubM",
            "subClass": 0,
            "bndTyp": "SINGLE"
          },
          "dirVec": {
            "x": 7.9272,
            "y": -2.5174,
            "z": 6.3831
          }
        },
        {
          "id": 43728,
          "atomPositionNumber": 0,
          "atomPositionNumberInMol": 10,
          "apClass": {
            "rule": "MPhosphine",
            "subClass": 1,
            "bndTyp": "SINGLE"
          },
          "dirVec": {
            "x": 5.3681,
            "y": -0.8345,
            "z": 7.9017
          }
        }
      ],
      "lstSymAPs": [],
      "mol": {
        "atoms": [
          {
            "elSymbol": "P",
            "p3d": {
              "x": 6.9938,
              "y": -2.3142,
              "z": 7.9569
            }
          },
          {
            "elSymbol": "C",
            "p3d": {
              "x": 6.4789,
              "y": -4.0179,
              "z": 8.4779
            }
          },
          {
            "elSymbol": "H",
            "p3d": {
              "x": 5.6991,
              "y": -4.3449,
              "z": 7.7903
            }
          },
          {
            "elSymbol": "C",
            "p3d": {
              "x": 7.6308,
              "y": -5.0175,
              "z": 8.3775
            }
          },
          {
            "elSymbol": "H",
            "p3d": {
              "x": 7.9355,
              "y": -5.0968,
              "z": 7.3495
            }
          },
          {
            "elSymbol": "H",
            "p3d": {
              "x": 7.2741,
              "y": -5.9875,
              "z": 8.7015
            }
          },
          {
            "elSymbol": "C",
            "p3d": {
              "x": 8.8837,
              "y": -4.6364,
              "z": 9.2304
            }
          },
          {
            "elSymbol": "H",
            "p3d": {
              "x": 9.6989,
              "y": -5.3031,
              "z": 8.9301
            }
          },
          {
            "elSymbol": "H",
            "p3d": {
              "x": 8.6577,
              "y": -4.8647,
              "z": 10.2633
            }
          },
          {
            "elSymbol": "C",
            "p3d": {
              "x": 9.3638,
              "y": -3.1969,
              "z": 9.1272
            }
          },
          {
            "elSymbol": "H",
            "p3d": {
              "x": 10.1041,
              "y": -3.0308,
              "z": 9.9217
            }
          },
          {
            "elSymbol": "H",
            "p3d": {
              "x": 9.884,
              "y": -3.0664,
              "z": 8.1855
            }
          },
          {
            "elSymbol": "C",
            "p3d": {
              "x": 8.2791,
              "y": -2.1163,
              "z": 9.2588
            }
          },
          {
            "elSymbol": "H",
            "p3d": {
              "x": 8.7569,
              "y": -1.1402,
              "z": 9.1018
            }
          },
          {
            "elSymbol": "C",
            "p3d": {
              "x": 7.5764,
              "y": -2.0735,
              "z": 10.6271
            }
          },
          {
            "elSymbol": "H",
            "p3d": {
              "x": 6.9371,
              "y": -1.1906,
              "z": 10.6604
            }
          },
          {
            "elSymbol": "H",
            "p3d": {
              "x": 8.3398,
              "y": -1.9598,
              "z": 11.4008
            }
          },
          {
            "elSymbol": "C",
            "p3d": {
              "x": 6.717,
              "y": -3.3005,
              "z": 10.9996
            }
          },
          {
            "elSymbol": "H",
            "p3d": {
              "x": 7.3706,
              "y": -4.0717,
              "z": 11.3581
            }
          },
          {
            "elSymbol": "H",
            "p3d": {
              "x": 6.058,
              "y": -3.0039,
              "z": 11.8074
            }
          },
          {
            "elSymbol": "C",
            "p3d": {
              "x": 5.8297,
              "y": -3.8969,
              "z": 9.8822
            }
          },
          {
            "elSymbol": "H",
            "p3d": {
              "x": 5.5463,
              "y": -4.9079,
              "z": 10.192
            }
          },
          {
            "elSymbol": "H",
            "p3d": {
              "x": 4.9376,
              "y": -3.3154,
              "z": 9.8051
            }
          }
        ],
        "bonds": [
          {
            "atomIds": [
              1,
              0
            ],
            "bo": "SINGLE"
          },
          {
            "atomIds": [
              1,
              2
            ],
            "bo": "SINGLE"
          },
          {
            "atomIds": [
              3,
              1
            ],
            "bo": "SINGLE"
          },
          {
            "atomIds": [
              4,
              3
            ],
            "bo": "SINGLE"
          },
          {
            "atomIds": [
              5,
              3
            ],
            "bo": "SINGLE"
          },
          {
            "atomIds": [
              6,
              3
            ],
            "bo": "SINGLE"
          },
          {
            "atomIds": [
              7,
              6
            ],
            "bo": "SINGLE"
          },
          {
            "atomIds": [
              8,
              6
            ],
            "bo": "SINGLE"
          },
          {
            "atomIds": [
              9,
              6
            ],
            "bo": "SINGLE"
          },
          {
            "atomIds": [
              9,
              12
            ],
            "bo": "SINGLE"
          },
          {
            "atomIds": [
              10,
              9
            ],
            "bo": "SINGLE"
          },
          {
            "atomIds": [
              11,
              9
            ],
            "bo": "SINGLE"
          },
          {
            "atomIds": [
              12,
              0
            ],
            "bo": "SINGLE"
          },
          {
            "atomIds": [
              12,
              13
            ],
            "bo": "SINGLE"
          },
          {
            "atomIds": [
              14,
              12
            ],
            "bo": "SINGLE"
          },
          {
            "atomIds": [
              15,
              14
            ],
            "bo": "SINGLE"
          },
          {
            "atomIds": [
              16,
              14
            ],
            "bo": "SINGLE"
          },
          {
            "atomIds": [
              17,
              14
            ],
            "bo": "SINGLE"
          },
          {
            "atomIds": [
              17,
              20
            ],
            "bo": "SINGLE"
          },
          {
            "atomIds": [
              18,
              17
            ],
            "bo": "SINGLE"
          },
          {
            "atomIds": [
              19,
              17
            ],
            "bo": "SINGLE"
          },
          {
            "atomIds": [
              20,
              1
            ],
            "bo": "SINGLE"
          },
          {
            "atomIds": [
              21,
              20
            ],
            "bo": "SINGLE"
          },
          {
            "atomIds": [
              22,
              20
            ],
            "bo": "SINGLE"
          }
        ]
      },
      "vertexId": 102,
      "buildingBlockId": 39,
      "buildingBlockType": "FRAGMENT",
      "isRCV": false,
      "properties": {
        "ATTACHMENT_POINTS": "1#LPhosphineSubM:0:SINGLE:7.9272%-2.5174%6.3831,MPhosphine:1:SINGLE:5.3681%-0.8345%7.9017 "
      },
      "uniquefyingPropertyKeys": [],
      "allowedMutationTypes": [
        "DELETE",
        "EXTEND",
        "CHANGEBRANCH",
        "CHANGELINK",
        "ADDLINK",
        "DELETELINK",
        "DELETECHAIN"
      ],
      "vertexType": "MolecularFragment"
    },
    {
      "lstAPs": [
        {
          "id": 43729,
          "atomPositionNumber": 0,
          "atomPositionNumberInMol": 50,
          "apClass": {
            "rule": "Xlig",
            "subClass": 1,
            "bndTyp": "SINGLE"
          },
          "dirVec": {
            "x": -0.102,
            "y": 0.0185,
            "z": -1.0265
          }
        }
      ],
      "lstSymAPs": [],
      "mol": {
        "atoms": [
          {
            "elSymbol": "S",
            "p3d": {
              "x": -0.3267,
              "y": 2.3403,
              "z": -1.0022
            }
          },
          {
            "elSymbol": "C",
            "p3d": {
              "x": -0.626,
              "y": 2.4866,
              "z": 0.7805
            }
          },
          {
            "elSymbol": "H",
            "p3d": {
              "x": 0.1766,
              "y": 3.089,
              "z": 1.2414
            }
          },
          {
            "elSymbol": "H",
            "p3d": {
              "x": -0.651,
              "y": 1.5065,
              "z": 1.2643
            }
          },
          {
            "elSymbol": "H",
            "p3d": {
              "x": -1.5658,
              "y": 2.981,
              "z": 0.9515
            }
          }
        ],
        "bonds": [
          {
            "atomIds": [
              1,
              2
            ],
            "bo": "SINGLE"
          },
          {
            "atomIds": [
              1,
              3
            ],
            "bo": "SINGLE"
          },
          {
            "atomIds": [
              1,
              4
            ],
            "bo": "SINGLE"
          },
          {
            "atomIds": [
              0,
              1
            ],
            "bo": "SINGLE"
          }
        ]
      },
      "vertexId": 85,
      "buildingBlockId": 63,
      "buildingBlockType": "FRAGMENT",
      "isRCV": false,
      "properties": {
        "ATTACHMENT_POINTS": "1#Xlig:1:SINGLE:-0.1020%0.0185%-1.0265 "
      },
      "uniquefyingPropertyKeys": [],
      "allowedMutationTypes": [
        "DELETE",
        "EXTEND",
        "CHANGEBRANCH",
        "CHANGELINK",
        "ADDLINK",
        "DELETELINK",
        "DELETECHAIN"
      ],
      "vertexType": "MolecularFragment"
    },
    {
      "lstAPs": [
        {
          "id": 43754,
          "atomPositionNumber": 0,
          "atomPositionNumberInMol": 33,
          "apClass": {
            "rule": "SubRM",
            "subClass": 1,
            "bndTyp": "SINGLE"
          },
          "dirVec": {
            "x": 0.2917,
            "y": 0.3929,
            "z": -0.6365
          }
        }
      ],
      "lstSymAPs": [],
      "mol": {
        "atoms": [
          {
            "elSymbol": "C",
            "p3d": {
              "x": 1.7002,
              "y": 0.56,
              "z": -1.2045
            }
          },
          {
            "elSymbol": "C",
            "p3d": {
              "x": 3.564,
              "y": -0.7339,
              "z": -2.2652
            }
          },
          {
            "elSymbol": "C",
            "p3d": {
              "x": 2.9237,
              "y": 1.5034,
              "z": -3.1926
            }
          },
          {
            "elSymbol": "C",
            "p3d": {
              "x": 3.4145,
              "y": 0.0994,
              "z": -3.5498
            }
          },
          {
            "elSymbol": "C",
            "p3d": {
              "x": 1.5576,
              "y": 1.3879,
              "z": -2.5024
            }
          },
          {
            "elSymbol": "C",
            "p3d": {
              "x": 2.203,
              "y": -0.843,
              "z": -1.5702
            }
          },
          {
            "elSymbol": "H",
            "p3d": {
              "x": 4.3384,
              "y": -0.3241,
              "z": -1.6106
            }
          },
          {
            "elSymbol": "H",
            "p3d": {
              "x": 3.6361,
              "y": 2.0524,
              "z": -2.5991
            }
          },
          {
            "elSymbol": "H",
            "p3d": {
              "x": 2.7828,
              "y": -0.3911,
              "z": -4.2916
            }
          },
          {
            "elSymbol": "H",
            "p3d": {
              "x": 0.7737,
              "y": 0.9833,
              "z": -3.15
            }
          },
          {
            "elSymbol": "H",
            "p3d": {
              "x": 1.4815,
              "y": -1.3988,
              "z": -2.1783
            }
          },
          {
            "elSymbol": "H",
            "p3d": {
              "x": 2.3445,
              "y": 1.0609,
              "z": -0.4835
            }
          },
          {
            "elSymbol": "H",
            "p3d": {
              "x": 3.8429,
              "y": -1.7623,
              "z": -2.577
            }
          },
          {
            "elSymbol": "H",
            "p3d": {
              "x": 2.7428,
              "y": 2.0124,
              "z": -4.146
            }
          },
          {
            "elSymbol": "H",
            "p3d": {
              "x": 4.4291,
              "y": 0.2183,
              "z": -3.9628
            }
          },
          {
            "elSymbol": "H",
            "p3d": {
              "x": 1.2819,
              "y": 2.4034,
              "z": -2.1821
            }
          },
          {
            "elSymbol": "H",
            "p3d": {
              "x": 2.3734,
              "y": -1.3662,
              "z": -0.6149
            }
          }
        ],
        "bonds": [
          {
            "atomIds": [
              0,
              11
            ],
            "bo": "SINGLE"
          },
          {
            "atomIds": [
              0,
              4
            ],
            "bo": "SINGLE"
          },
          {
            "atomIds": [
              0,
              5
            ],
            "bo": "SINGLE"
          },
          {
            "atomIds": [
              1,
              6
            ],
            "bo": "SINGLE"
          },
          {
            "atomIds": [
              1,
              12
            ],
            "bo": "SINGLE"
          },
          {
            "atomIds": [
              1,
              3
            ],
            "bo": "SINGLE"
          },
          {
            "atomIds": [
              1,
              5
            ],
            "bo": "SINGLE"
          },
          {
            "atomIds": [
              2,
              7
            ],
            "bo": "SINGLE"
          },
          {
            "atomIds": [
              2,
              13
            ],
            "bo": "SINGLE"
          },
          {
            "atomIds": [
              2,
              4
            ],
            "bo": "SINGLE"
          },
          {
            "atomIds": [
              2,
              3
            ],
            "bo": "SINGLE"
          },
          {
            "atomIds": [
              3,
              8
            ],
            "bo": "SINGLE"
          },
          {
            "atomIds": [
              3,
              14
            ],
            "bo": "SINGLE"
          },
          {
            "atomIds": [
              4,
              9
            ],
            "bo": "SINGLE"
          },
          {
            "atomIds": [
              4,
              15
            ],
            "bo": "SINGLE"
          },
          {
            "atomIds": [
              5,
              10
            ],
            "bo": "SINGLE"
          },
          {
            "atomIds": [
              5,
              16
            ],
            "bo": "SINGLE"
          }
        ]
      },
      "vertexId": 32325,
      "buildingBlockId": 34,
      "buildingBlockType": "FRAGMENT",
      "isRCV": false,
      "properties": {
        "ATTACHMENT_POINTS": "1#SubRM:1:SINGLE:0.2917%0.3929%-0.6365 "
      },
      "uniquefyingPropertyKeys": [],
      "allowedMutationTypes": [
        "DELETE",
        "EXTEND",
        "CHANGEBRANCH",
        "CHANGELINK",
        "ADDLINK",
        "DELETELINK",
        "DELETECHAIN"
      ],
      "vertexType": "MolecularFragment"
    }
  ],
  "gEdges": [
    {
      "srcAPID": 43723,
      "trgAPID": 43726,
      "bondType": "SINGLE"
    },
    {
      "srcAPID": 43725,
      "trgAPID": 43728,
      "bondType": "SINGLE"
    },
    {
      "srcAPID": 43724,
      "trgAPID": 43729,
      "bondType": "SINGLE"
    },
    {
      "srcAPID": 43727,
      "trgAPID": 43754,
      "bondType": "SINGLE"
    }
  ],
  "gRings": [],
  "symVertices": []
}

> <SMILES>
[Pt](C#O)(SC([H])([H])[H])([P]1(C2([H])C([H])([H])C([H])([H])C(C1([H])C([H])([H])C(C2([H])[H])([H])[H])([H])[H])C3([H])C(C([H])([H])C(C([H])([H])C3([H])[H])([H])[H])([H])[H])SC([H])([H])[H]

$$$$
