M00018003
  CDK     04222215073D

 60 65  0  0  0  0  0  0  0  0999 V2000
   -0.3233    3.6893   -0.8435 Pt  0  0  0  0  0  0  0  0  0  0  0  0
   -0.4888    5.6155   -1.2028 C   0  0  0  0  0  0  0  0  0  0  0  0
   -0.5965    6.7279   -1.4220 O   0  0  0  0  0  0  0  0  0  0  0  0
    1.3485    4.0474    0.1842 C   0  0  0  0  0  0  0  0  0  0  0  0
    2.3200    4.2650    0.7691 N   0  0  0  0  0  0  0  0  0  0  0  0
   -0.2057    1.4661   -0.5414 P   0  0  0  0  0  0  0  0  0  0  0  0
    1.0917    0.7859    0.2682 O   0  0  0  0  0  0  0  0  0  0  0  0
   -1.5803    0.9232    0.2175 O   0  0  0  0  0  0  0  0  0  0  0  0
    0.9573    0.6168    1.6555 C   0  0  0  0  0  0  0  0  0  0  0  0
    1.9084    1.3464    2.4228 C   0  0  0  0  0  0  0  0  0  0  0  0
    2.6232    1.9943    1.9059 H   0  0  0  0  0  0  0  0  0  0  0  0
    1.8985    1.2050    3.7842 C   0  0  0  0  0  0  0  0  0  0  0  0
    2.6209    1.7421    4.4021 H   0  0  0  0  0  0  0  0  0  0  0  0
    0.9262    0.3693    4.4238 C   0  0  0  0  0  0  0  0  0  0  0  0
    0.8768    0.2753    5.8507 C   0  0  0  0  0  0  0  0  0  0  0  0
    1.6133    0.8269    6.4349 H   0  0  0  0  0  0  0  0  0  0  0  0
   -0.0830   -0.4865    6.4676 C   0  0  0  0  0  0  0  0  0  0  0  0
   -0.1278   -0.5619    7.5533 H   0  0  0  0  0  0  0  0  0  0  0  0
   -1.0480   -1.1869    5.6884 C   0  0  0  0  0  0  0  0  0  0  0  0
   -1.8149   -1.7674    6.2010 H   0  0  0  0  0  0  0  0  0  0  0  0
   -1.0150   -1.1249    4.3178 C   0  0  0  0  0  0  0  0  0  0  0  0
   -1.7654   -1.6505    3.7242 H   0  0  0  0  0  0  0  0  0  0  0  0
   -0.0115   -0.3589    3.6424 C   0  0  0  0  0  0  0  0  0  0  0  0
    0.0557   -0.2803    2.2042 C   0  0  0  0  0  0  0  0  0  0  0  0
   -0.8253   -1.0906    1.3442 C   0  0  0  0  0  0  0  0  0  0  0  0
   -0.8870   -2.5272    1.4330 C   0  0  0  0  0  0  0  0  0  0  0  0
   -0.0042   -3.2771    2.2746 C   0  0  0  0  0  0  0  0  0  0  0  0
    0.7495   -2.7409    2.8552 H   0  0  0  0  0  0  0  0  0  0  0  0
   -0.0915   -4.6447    2.3414 C   0  0  0  0  0  0  0  0  0  0  0  0
    0.5829   -5.2154    2.9798 H   0  0  0  0  0  0  0  0  0  0  0  0
   -1.0641   -5.3454    1.5714 C   0  0  0  0  0  0  0  0  0  0  0  0
   -1.1169   -6.4305    1.6526 H   0  0  0  0  0  0  0  0  0  0  0  0
   -1.9097   -4.6572    0.7388 C   0  0  0  0  0  0  0  0  0  0  0  0
   -2.6505   -5.1828    0.1368 H   0  0  0  0  0  0  0  0  0  0  0  0
   -1.8320   -3.2316    0.6375 C   0  0  0  0  0  0  0  0  0  0  0  0
   -2.6834   -2.5212   -0.2702 C   0  0  0  0  0  0  0  0  0  0  0  0
   -3.4126   -3.0836   -0.8554 H   0  0  0  0  0  0  0  0  0  0  0  0
   -2.5700   -1.1637   -0.4158 C   0  0  0  0  0  0  0  0  0  0  0  0
   -3.1817   -0.5894   -1.1141 H   0  0  0  0  0  0  0  0  0  0  0  0
   -1.6169   -0.4813    0.3872 C   0  0  0  0  0  0  0  0  0  0  0  0
   -0.0687    0.5964   -1.9190 O   0  0  0  0  0  0  0  0  0  0  0  0
    0.4844    1.3038   -3.1138 C   0  0  0  0  0  0  0  0  0  0  0  0
    2.4808    1.1518   -4.6326 C   0  0  0  0  0  0  0  0  0  0  0  0
    0.1391    1.1739   -5.6010 C   0  0  0  0  0  0  0  0  0  0  0  0
    1.5692    0.6399   -5.7557 C   0  0  0  0  0  0  0  0  0  0  0  0
   -0.4462    0.8237   -4.2281 C   0  0  0  0  0  0  0  0  0  0  0  0
    1.9209    0.7972   -3.2493 C   0  0  0  0  0  0  0  0  0  0  0  0
    2.6086    2.2485   -4.7192 H   0  0  0  0  0  0  0  0  0  0  0  0
    0.1256    2.2715   -5.7484 H   0  0  0  0  0  0  0  0  0  0  0  0
    1.5578   -0.4676   -5.7536 H   0  0  0  0  0  0  0  0  0  0  0  0
   -0.5947   -0.2726   -4.1353 H   0  0  0  0  0  0  0  0  0  0  0  0
    1.9366   -0.3032   -3.0966 H   0  0  0  0  0  0  0  0  0  0  0  0
    0.4343    2.4109   -2.9785 H   0  0  0  0  0  0  0  0  0  0  0  0
    3.4945    0.7198   -4.7418 H   0  0  0  0  0  0  0  0  0  0  0  0
   -0.5098    0.7558   -6.3951 H   0  0  0  0  0  0  0  0  0  0  0  0
    1.9788    0.9386   -6.7391 H   0  0  0  0  0  0  0  0  0  0  0  0
   -1.4552    1.2692   -4.1082 H   0  0  0  0  0  0  0  0  0  0  0  0
    2.5696    1.2111   -2.4536 H   0  0  0  0  0  0  0  0  0  0  0  0
   -1.9744    3.3244   -1.9032 C   0  0  0  0  0  0  0  0  0  0  0  0
   -2.9180    3.1101   -2.5331 N   0  0  0  0  0  0  0  0  0  0  0  0
  2  3  3  0  0  0  0
  1  2  1  0  0  0  0
  4  5  3  0  0  0  0
  1  4  1  0  0  0  0
  7  6  1  0  0  0  0
  8  6  1  0  0  0  0
  9  7  1  0  0  0  0
 10  9  2  0  0  0  0
 11 10  1  0  0  0  0
 12 10  1  0  0  0  0
 13 12  1  0  0  0  0
 14 12  2  0  0  0  0
 15 14  1  0  0  0  0
 16 15  1  0  0  0  0
 17 15  2  0  0  0  0
 18 17  1  0  0  0  0
 19 17  1  0  0  0  0
 20 19  1  0  0  0  0
 21 19  2  0  0  0  0
 21 23  1  0  0  0  0
 22 21  1  0  0  0  0
 23 14  1  0  0  0  0
 23 24  2  0  0  0  0
 24  9  1  0  0  0  0
 25 24  1  0  0  0  0
 25 40  1  0  0  0  0
 26 25  2  0  0  0  0
 27 26  1  0  0  0  0
 28 27  1  0  0  0  0
 29 27  2  0  0  0  0
 30 29  1  0  0  0  0
 31 29  1  0  0  0  0
 32 31  1  0  0  0  0
 33 31  2  0  0  0  0
 33 35  1  0  0  0  0
 34 33  1  0  0  0  0
 35 26  1  0  0  0  0
 36 35  2  0  0  0  0
 37 36  1  0  0  0  0
 38 36  1  0  0  0  0
 38 40  2  0  0  0  0
 39 38  1  0  0  0  0
 40  8  1  0  0  0  0
  1  6  1  0  0  0  0
  6 41  1  0  0  0  0
 42 53  1  0  0  0  0
 42 46  1  0  0  0  0
 42 47  1  0  0  0  0
 43 48  1  0  0  0  0
 43 54  1  0  0  0  0
 43 45  1  0  0  0  0
 43 47  1  0  0  0  0
 44 49  1  0  0  0  0
 44 55  1  0  0  0  0
 44 46  1  0  0  0  0
 44 45  1  0  0  0  0
 45 50  1  0  0  0  0
 45 56  1  0  0  0  0
 46 51  1  0  0  0  0
 46 57  1  0  0  0  0
 47 52  1  0  0  0  0
 47 58  1  0  0  0  0
 41 42  1  0  0  0  0
 59 60  3  0  0  0  0
  1 59  1  0  0  0  0
M  END
> <PM6_ENERGY>
-159.061

> <UID>
JKWUHBMUYPTKRA-VNIRQHSZNA-N

> <FITNESS>
1.13889

> <GCODE>
19364

> <GraphENC>
19364 72_1_0,81_66_1,111_50_1,87_66_1,210465_52_1,401854_35_1, 72_0_81_0_SINGLE_Xlig:0_Xlig:1,72_2_111_1_SINGLE_scaff:0_MPhosphite:1,72_1_87_0_SINGLE_Xlig:0_Xlig:1,111_0_210465_0_SINGLE_LPhosphiteSubO:0_LPhosphiteSubO:1,210465_1_401854_0_SINGLE_OPhosphiteSub:1_SubRM:1, 

> <GraphJson>
{
  "graphId": 19364,
  "gVertices": [
    {
      "lstAPs": [
        {
          "id": 520387,
          "atomPositionNumber": 0,
          "atomPositionNumberInMol": 0,
          "apClass": {
            "rule": "Xlig",
            "subClass": 0,
            "bndTyp": "SINGLE"
          },
          "dirVec": {
            "x": -2.3339,
            "y": -0.0087,
            "z": 0.8172
          }
        },
        {
          "id": 520388,
          "atomPositionNumber": 0,
          "atomPositionNumberInMol": 0,
          "apClass": {
            "rule": "Xlig",
            "subClass": 0,
            "bndTyp": "SINGLE"
          },
          "dirVec": {
            "x": 2.336,
            "y": -5.0E-4,
            "z": 0.829
          }
        },
        {
          "id": 520389,
          "atomPositionNumber": 0,
          "atomPositionNumberInMol": 0,
          "apClass": {
            "rule": "scaff",
            "subClass": 0,
            "bndTyp": "SINGLE"
          },
          "dirVec": {
            "x": -0.0095,
            "y": 0.0046,
            "z": -1.7113
          }
        }
      ],
      "lstSymAPs": [
        {
          "symIds": [
            0,
            1
          ]
        }
      ],
      "mol": {
        "atoms": [
          {
            "elSymbol": "Pt",
            "p3d": {
              "x": -0.0098,
              "y": 0.0049,
              "z": 0.6289
            }
          },
          {
            "elSymbol": "C",
            "p3d": {
              "x": -6.0E-4,
              "y": 0.0016,
              "z": 2.5609
            }
          },
          {
            "elSymbol": "O",
            "p3d": {
              "x": 0.0025,
              "y": -0.0041,
              "z": 3.6974
            }
          },
          {
            "elSymbol": "Du",
            "p3d": {
              "x": -0.007,
              "y": 1.0013,
              "z": 0.6372
            }
          },
          {
            "elSymbol": "Du",
            "p3d": {
              "x": -0.0014,
              "y": 0.9902,
              "z": 2.5698
            }
          }
        ],
        "bonds": [
          {
            "atomIds": [
              1,
              2
            ],
            "bo": "TRIPLE"
          },
          {
            "atomIds": [
              0,
              1
            ],
            "bo": "SINGLE"
          },
          {
            "atomIds": [
              3,
              0
            ],
            "bo": "SINGLE"
          },
          {
            "atomIds": [
              4,
              1
            ],
            "bo": "SINGLE"
          }
        ]
      },
      "vertexId": 72,
      "buildingBlockId": 0,
      "buildingBlockType": "SCAFFOLD",
      "isRCV": false,
      "properties": {
        "ATTACHMENT_POINTS": "1#Xlig:0:SINGLE:-2.3339%-0.0087%0.8172,Xlig:0:SINGLE:2.3360%-0.0005%0.8290,scaff:0:SINGLE:-0.0095%0.0046%-1.7113 "
      },
      "uniquefyingPropertyKeys": [],
      "allowedMutationTypes": [
        "DELETE",
        "EXTEND",
        "CHANGEBRANCH",
        "CHANGELINK",
        "ADDLINK",
        "DELETELINK",
        "DELETECHAIN"
      ],
      "vertexType": "MolecularFragment"
    },
    {
      "lstAPs": [
        {
          "id": 520390,
          "atomPositionNumber": 0,
          "atomPositionNumberInMol": 5,
          "apClass": {
            "rule": "Xlig",
            "subClass": 1,
            "bndTyp": "SINGLE"
          },
          "dirVec": {
            "x": 0.0192,
            "y": -0.0048,
            "z": -0.5645
          }
        }
      ],
      "lstSymAPs": [],
      "mol": {
        "atoms": [
          {
            "elSymbol": "C",
            "p3d": {
              "x": -1.967,
              "y": -0.0075,
              "z": -0.4937
            }
          },
          {
            "elSymbol": "N",
            "p3d": {
              "x": -3.1263,
              "y": -0.0054,
              "z": -0.4354
            }
          },
          {
            "elSymbol": "Du",
            "p3d": {
              "x": -1.9744,
              "y": 0.9926,
              "z": -0.5036
            }
          }
        ],
        "bonds": [
          {
            "atomIds": [
              0,
              1
            ],
            "bo": "TRIPLE"
          },
          {
            "atomIds": [
              2,
              0
            ],
            "bo": "SINGLE"
          }
        ]
      },
      "vertexId": 81,
      "buildingBlockId": 65,
      "buildingBlockType": "FRAGMENT",
      "isRCV": false,
      "properties": {
        "ATTACHMENT_POINTS": "1#Xlig:1:SINGLE:0.0192%-0.0048%-0.5645 "
      },
      "uniquefyingPropertyKeys": [],
      "allowedMutationTypes": [
        "DELETE",
        "EXTEND",
        "CHANGEBRANCH",
        "CHANGELINK",
        "ADDLINK",
        "DELETELINK",
        "DELETECHAIN"
      ],
      "vertexType": "MolecularFragment"
    },
    {
      "lstAPs": [
        {
          "id": 520391,
          "atomPositionNumber": 0,
          "atomPositionNumberInMol": 8,
          "apClass": {
            "rule": "LPhosphiteSubO",
            "subClass": 0,
            "bndTyp": "SINGLE"
          },
          "dirVec": {
            "x": 7.8978,
            "y": 2.2953,
            "z": -1.0004
          }
        },
        {
          "id": 520392,
          "atomPositionNumber": 0,
          "atomPositionNumberInMol": 8,
          "apClass": {
            "rule": "MPhosphite",
            "subClass": 1,
            "bndTyp": "SINGLE"
          },
          "dirVec": {
            "x": 8.1055,
            "y": 3.5873,
            "z": 1.9978
          }
        }
      ],
      "lstSymAPs": [],
      "mol": {
        "atoms": [
          {
            "elSymbol": "P",
            "p3d": {
              "x": 7.9084,
              "y": 1.9754,
              "z": 0.5292
            }
          },
          {
            "elSymbol": "O",
            "p3d": {
              "x": 9.0676,
              "y": 0.8826,
              "z": 0.4629
            }
          },
          {
            "elSymbol": "O",
            "p3d": {
              "x": 6.6295,
              "y": 1.0833,
              "z": 0.8378
            }
          },
          {
            "elSymbol": "C",
            "p3d": {
              "x": 9.1253,
              "y": -0.1058,
              "z": 1.5323
            }
          },
          {
            "elSymbol": "C",
            "p3d": {
              "x": 10.1483,
              "y": 0.0879,
              "z": 2.4774
            }
          },
          {
            "elSymbol": "H",
            "p3d": {
              "x": 10.8506,
              "y": 0.9254,
              "z": 2.3567
            }
          },
          {
            "elSymbol": "C",
            "p3d": {
              "x": 10.266,
              "y": -0.7624,
              "z": 3.5022
            }
          },
          {
            "elSymbol": "H",
            "p3d": {
              "x": 11.0535,
              "y": -0.661,
              "z": 4.2292
            }
          },
          {
            "elSymbol": "C",
            "p3d": {
              "x": 9.3117,
              "y": -1.8292,
              "z": 3.6241
            }
          },
          {
            "elSymbol": "C",
            "p3d": {
              "x": 9.3872,
              "y": -2.7418,
              "z": 4.7564
            }
          },
          {
            "elSymbol": "H",
            "p3d": {
              "x": 10.1945,
              "y": -2.6628,
              "z": 5.4815
            }
          },
          {
            "elSymbol": "C",
            "p3d": {
              "x": 8.4129,
              "y": -3.6623,
              "z": 4.9017
            }
          },
          {
            "elSymbol": "H",
            "p3d": {
              "x": 8.4465,
              "y": -4.3006,
              "z": 5.782
            }
          },
          {
            "elSymbol": "C",
            "p3d": {
              "x": 7.4123,
              "y": -3.8689,
              "z": 3.9886
            }
          },
          {
            "elSymbol": "H",
            "p3d": {
              "x": 6.6644,
              "y": -4.6462,
              "z": 4.1245
            }
          },
          {
            "elSymbol": "C",
            "p3d": {
              "x": 7.362,
              "y": -2.9904,
              "z": 2.8379
            }
          },
          {
            "elSymbol": "H",
            "p3d": {
              "x": 6.5752,
              "y": -3.1171,
              "z": 2.102
            }
          },
          {
            "elSymbol": "C",
            "p3d": {
              "x": 8.2931,
              "y": -2.0283,
              "z": 2.6386
            }
          },
          {
            "elSymbol": "C",
            "p3d": {
              "x": 8.2222,
              "y": -1.1106,
              "z": 1.5036
            }
          },
          {
            "elSymbol": "C",
            "p3d": {
              "x": 7.2264,
              "y": -1.2173,
              "z": 0.4606
            }
          },
          {
            "elSymbol": "C",
            "p3d": {
              "x": 7.0184,
              "y": -2.412,
              "z": -0.3736
            }
          },
          {
            "elSymbol": "C",
            "p3d": {
              "x": 7.8626,
              "y": -3.5428,
              "z": -0.2234
            }
          },
          {
            "elSymbol": "H",
            "p3d": {
              "x": 8.6354,
              "y": -3.5405,
              "z": 0.5507
            }
          },
          {
            "elSymbol": "C",
            "p3d": {
              "x": 7.682,
              "y": -4.6511,
              "z": -1.0479
            }
          },
          {
            "elSymbol": "H",
            "p3d": {
              "x": 8.311,
              "y": -5.5242,
              "z": -0.9425
            }
          },
          {
            "elSymbol": "C",
            "p3d": {
              "x": 6.7355,
              "y": -4.6351,
              "z": -2.0117
            }
          },
          {
            "elSymbol": "H",
            "p3d": {
              "x": 6.5863,
              "y": -5.522,
              "z": -2.6583
            }
          },
          {
            "elSymbol": "C",
            "p3d": {
              "x": 5.9066,
              "y": -3.5062,
              "z": -2.2127
            }
          },
          {
            "elSymbol": "H",
            "p3d": {
              "x": 5.1559,
              "y": -3.5321,
              "z": -3.0139
            }
          },
          {
            "elSymbol": "C",
            "p3d": {
              "x": 6.0185,
              "y": -2.3785,
              "z": -1.4005
            }
          },
          {
            "elSymbol": "C",
            "p3d": {
              "x": 5.2406,
              "y": -1.2493,
              "z": -1.6114
            }
          },
          {
            "elSymbol": "H",
            "p3d": {
              "x": 4.4697,
              "y": -1.2606,
              "z": -2.3785
            }
          },
          {
            "elSymbol": "C",
            "p3d": {
              "x": 5.4446,
              "y": -0.1476,
              "z": -0.8639
            }
          },
          {
            "elSymbol": "H",
            "p3d": {
              "x": 4.8409,
              "y": 0.7494,
              "z": -1.0205
            }
          },
          {
            "elSymbol": "C",
            "p3d": {
              "x": 6.4251,
              "y": -0.1479,
              "z": 0.1006
            }
          }
        ],
        "bonds": [
          {
            "atomIds": [
              1,
              0
            ],
            "bo": "SINGLE"
          },
          {
            "atomIds": [
              2,
              0
            ],
            "bo": "SINGLE"
          },
          {
            "atomIds": [
              3,
              1
            ],
            "bo": "SINGLE"
          },
          {
            "atomIds": [
              4,
              3
            ],
            "bo": "DOUBLE"
          },
          {
            "atomIds": [
              5,
              4
            ],
            "bo": "SINGLE"
          },
          {
            "atomIds": [
              6,
              4
            ],
            "bo": "SINGLE"
          },
          {
            "atomIds": [
              7,
              6
            ],
            "bo": "SINGLE"
          },
          {
            "atomIds": [
              8,
              6
            ],
            "bo": "DOUBLE"
          },
          {
            "atomIds": [
              9,
              8
            ],
            "bo": "SINGLE"
          },
          {
            "atomIds": [
              10,
              9
            ],
            "bo": "SINGLE"
          },
          {
            "atomIds": [
              11,
              9
            ],
            "bo": "DOUBLE"
          },
          {
            "atomIds": [
              12,
              11
            ],
            "bo": "SINGLE"
          },
          {
            "atomIds": [
              13,
              11
            ],
            "bo": "SINGLE"
          },
          {
            "atomIds": [
              14,
              13
            ],
            "bo": "SINGLE"
          },
          {
            "atomIds": [
              15,
              13
            ],
            "bo": "DOUBLE"
          },
          {
            "atomIds": [
              15,
              17
            ],
            "bo": "SINGLE"
          },
          {
            "atomIds": [
              16,
              15
            ],
            "bo": "SINGLE"
          },
          {
            "atomIds": [
              17,
              8
            ],
            "bo": "SINGLE"
          },
          {
            "atomIds": [
              17,
              18
            ],
            "bo": "DOUBLE"
          },
          {
            "atomIds": [
              18,
              3
            ],
            "bo": "SINGLE"
          },
          {
            "atomIds": [
              19,
              18
            ],
            "bo": "SINGLE"
          },
          {
            "atomIds": [
              19,
              34
            ],
            "bo": "SINGLE"
          },
          {
            "atomIds": [
              20,
              19
            ],
            "bo": "DOUBLE"
          },
          {
            "atomIds": [
              21,
              20
            ],
            "bo": "SINGLE"
          },
          {
            "atomIds": [
              22,
              21
            ],
            "bo": "SINGLE"
          },
          {
            "atomIds": [
              23,
              21
            ],
            "bo": "DOUBLE"
          },
          {
            "atomIds": [
              24,
              23
            ],
            "bo": "SINGLE"
          },
          {
            "atomIds": [
              25,
              23
            ],
            "bo": "SINGLE"
          },
          {
            "atomIds": [
              26,
              25
            ],
            "bo": "SINGLE"
          },
          {
            "atomIds": [
              27,
              25
            ],
            "bo": "DOUBLE"
          },
          {
            "atomIds": [
              27,
              29
            ],
            "bo": "SINGLE"
          },
          {
            "atomIds": [
              28,
              27
            ],
            "bo": "SINGLE"
          },
          {
            "atomIds": [
              29,
              20
            ],
            "bo": "SINGLE"
          },
          {
            "atomIds": [
              30,
              29
            ],
            "bo": "DOUBLE"
          },
          {
            "atomIds": [
              31,
              30
            ],
            "bo": "SINGLE"
          },
          {
            "atomIds": [
              32,
              30
            ],
            "bo": "SINGLE"
          },
          {
            "atomIds": [
              32,
              34
            ],
            "bo": "DOUBLE"
          },
          {
            "atomIds": [
              33,
              32
            ],
            "bo": "SINGLE"
          },
          {
            "atomIds": [
              34,
              2
            ],
            "bo": "SINGLE"
          }
        ]
      },
      "vertexId": 111,
      "buildingBlockId": 49,
      "buildingBlockType": "FRAGMENT",
      "isRCV": false,
      "properties": {
        "ATTACHMENT_POINTS": "1#LPhosphiteSubO:0:SINGLE:7.8978%2.2953%-1.0004,MPhosphite:1:SINGLE:8.1055%3.5873%1.9978 "
      },
      "uniquefyingPropertyKeys": [],
      "allowedMutationTypes": [
        "DELETE",
        "EXTEND",
        "CHANGEBRANCH",
        "CHANGELINK",
        "ADDLINK",
        "DELETELINK",
        "DELETECHAIN"
      ],
      "vertexType": "MolecularFragment"
    },
    {
      "lstAPs": [
        {
          "id": 520393,
          "atomPositionNumber": 0,
          "atomPositionNumberInMol": 61,
          "apClass": {
            "rule": "Xlig",
            "subClass": 1,
            "bndTyp": "SINGLE"
          },
          "dirVec": {
            "x": 0.0192,
            "y": -0.0048,
            "z": -0.5645
          }
        }
      ],
      "lstSymAPs": [],
      "mol": {
        "atoms": [
          {
            "elSymbol": "C",
            "p3d": {
              "x": -1.967,
              "y": -0.0075,
              "z": -0.4937
            }
          },
          {
            "elSymbol": "N",
            "p3d": {
              "x": -3.1263,
              "y": -0.0054,
              "z": -0.4354
            }
          },
          {
            "elSymbol": "Du",
            "p3d": {
              "x": -1.9744,
              "y": 0.9926,
              "z": -0.5036
            }
          }
        ],
        "bonds": [
          {
            "atomIds": [
              0,
              1
            ],
            "bo": "TRIPLE"
          },
          {
            "atomIds": [
              2,
              0
            ],
            "bo": "SINGLE"
          }
        ]
      },
      "vertexId": 87,
      "buildingBlockId": 65,
      "buildingBlockType": "FRAGMENT",
      "isRCV": false,
      "properties": {
        "ATTACHMENT_POINTS": "1#Xlig:1:SINGLE:0.0192%-0.0048%-0.5645 "
      },
      "uniquefyingPropertyKeys": [],
      "allowedMutationTypes": [
        "DELETE",
        "EXTEND",
        "CHANGEBRANCH",
        "CHANGELINK",
        "ADDLINK",
        "DELETELINK",
        "DELETECHAIN"
      ],
      "vertexType": "MolecularFragment"
    },
    {
      "lstAPs": [
        {
          "id": 520394,
          "atomPositionNumber": 0,
          "atomPositionNumberInMol": 43,
          "apClass": {
            "rule": "LPhosphiteSubO",
            "subClass": 1,
            "bndTyp": "SINGLE"
          },
          "dirVec": {
            "x": 0.7035,
            "y": 2.9119,
            "z": 2.8175
          }
        },
        {
          "id": 520395,
          "atomPositionNumber": 0,
          "atomPositionNumberInMol": 43,
          "apClass": {
            "rule": "OPhosphiteSub",
            "subClass": 1,
            "bndTyp": "SINGLE"
          },
          "dirVec": {
            "x": 0.0564,
            "y": 5.2897,
            "z": 1.9394
          }
        }
      ],
      "lstSymAPs": [],
      "mol": {
        "atoms": [
          {
            "elSymbol": "O",
            "p3d": {
              "x": -0.1418,
              "y": 4.2412,
              "z": 2.9314
            }
          }
        ],
        "bonds": []
      },
      "vertexId": 210465,
      "buildingBlockId": 51,
      "buildingBlockType": "FRAGMENT",
      "isRCV": false,
      "properties": {
        "ATTACHMENT_POINTS": "1#LPhosphiteSubO:1:SINGLE:0.7035%2.9119%2.8175,OPhosphiteSub:1:SINGLE:0.0564%5.2897%1.9394 "
      },
      "uniquefyingPropertyKeys": [],
      "allowedMutationTypes": [
        "DELETE",
        "EXTEND",
        "CHANGEBRANCH",
        "CHANGELINK",
        "ADDLINK",
        "DELETELINK",
        "DELETECHAIN"
      ],
      "vertexType": "MolecularFragment"
    },
    {
      "lstAPs": [
        {
          "id": 520426,
          "atomPositionNumber": 0,
          "atomPositionNumberInMol": 44,
          "apClass": {
            "rule": "SubRM",
            "subClass": 1,
            "bndTyp": "SINGLE"
          },
          "dirVec": {
            "x": 0.2917,
            "y": 0.3929,
            "z": -0.6365
          }
        }
      ],
      "lstSymAPs": [],
      "mol": {
        "atoms": [
          {
            "elSymbol": "C",
            "p3d": {
              "x": 1.7002,
              "y": 0.56,
              "z": -1.2045
            }
          },
          {
            "elSymbol": "C",
            "p3d": {
              "x": 3.564,
              "y": -0.7339,
              "z": -2.2652
            }
          },
          {
            "elSymbol": "C",
            "p3d": {
              "x": 2.9237,
              "y": 1.5034,
              "z": -3.1926
            }
          },
          {
            "elSymbol": "C",
            "p3d": {
              "x": 3.4145,
              "y": 0.0994,
              "z": -3.5498
            }
          },
          {
            "elSymbol": "C",
            "p3d": {
              "x": 1.5576,
              "y": 1.3879,
              "z": -2.5024
            }
          },
          {
            "elSymbol": "C",
            "p3d": {
              "x": 2.203,
              "y": -0.843,
              "z": -1.5702
            }
          },
          {
            "elSymbol": "H",
            "p3d": {
              "x": 4.3384,
              "y": -0.3241,
              "z": -1.6106
            }
          },
          {
            "elSymbol": "H",
            "p3d": {
              "x": 3.6361,
              "y": 2.0524,
              "z": -2.5991
            }
          },
          {
            "elSymbol": "H",
            "p3d": {
              "x": 2.7828,
              "y": -0.3911,
              "z": -4.2916
            }
          },
          {
            "elSymbol": "H",
            "p3d": {
              "x": 0.7737,
              "y": 0.9833,
              "z": -3.15
            }
          },
          {
            "elSymbol": "H",
            "p3d": {
              "x": 1.4815,
              "y": -1.3988,
              "z": -2.1783
            }
          },
          {
            "elSymbol": "H",
            "p3d": {
              "x": 2.3445,
              "y": 1.0609,
              "z": -0.4835
            }
          },
          {
            "elSymbol": "H",
            "p3d": {
              "x": 3.8429,
              "y": -1.7623,
              "z": -2.577
            }
          },
          {
            "elSymbol": "H",
            "p3d": {
              "x": 2.7428,
              "y": 2.0124,
              "z": -4.146
            }
          },
          {
            "elSymbol": "H",
            "p3d": {
              "x": 4.4291,
              "y": 0.2183,
              "z": -3.9628
            }
          },
          {
            "elSymbol": "H",
            "p3d": {
              "x": 1.2819,
              "y": 2.4034,
              "z": -2.1821
            }
          },
          {
            "elSymbol": "H",
            "p3d": {
              "x": 2.3734,
              "y": -1.3662,
              "z": -0.6149
            }
          }
        ],
        "bonds": [
          {
            "atomIds": [
              0,
              11
            ],
            "bo": "SINGLE"
          },
          {
            "atomIds": [
              0,
              4
            ],
            "bo": "SINGLE"
          },
          {
            "atomIds": [
              0,
              5
            ],
            "bo": "SINGLE"
          },
          {
            "atomIds": [
              1,
              6
            ],
            "bo": "SINGLE"
          },
          {
            "atomIds": [
              1,
              12
            ],
            "bo": "SINGLE"
          },
          {
            "atomIds": [
              1,
              3
            ],
            "bo": "SINGLE"
          },
          {
            "atomIds": [
              1,
              5
            ],
            "bo": "SINGLE"
          },
          {
            "atomIds": [
              2,
              7
            ],
            "bo": "SINGLE"
          },
          {
            "atomIds": [
              2,
              13
            ],
            "bo": "SINGLE"
          },
          {
            "atomIds": [
              2,
              4
            ],
            "bo": "SINGLE"
          },
          {
            "atomIds": [
              2,
              3
            ],
            "bo": "SINGLE"
          },
          {
            "atomIds": [
              3,
              8
            ],
            "bo": "SINGLE"
          },
          {
            "atomIds": [
              3,
              14
            ],
            "bo": "SINGLE"
          },
          {
            "atomIds": [
              4,
              9
            ],
            "bo": "SINGLE"
          },
          {
            "atomIds": [
              4,
              15
            ],
            "bo": "SINGLE"
          },
          {
            "atomIds": [
              5,
              10
            ],
            "bo": "SINGLE"
          },
          {
            "atomIds": [
              5,
              16
            ],
            "bo": "SINGLE"
          }
        ]
      },
      "vertexId": 401854,
      "buildingBlockId": 34,
      "buildingBlockType": "FRAGMENT",
      "isRCV": false,
      "properties": {
        "ATTACHMENT_POINTS": "1#SubRM:1:SINGLE:0.2917%0.3929%-0.6365 "
      },
      "uniquefyingPropertyKeys": [],
      "allowedMutationTypes": [
        "DELETE",
        "EXTEND",
        "CHANGEBRANCH",
        "CHANGELINK",
        "ADDLINK",
        "DELETELINK",
        "DELETECHAIN"
      ],
      "vertexType": "MolecularFragment"
    }
  ],
  "gEdges": [
    {
      "srcAPID": 520387,
      "trgAPID": 520390,
      "bondType": "SINGLE"
    },
    {
      "srcAPID": 520389,
      "trgAPID": 520392,
      "bondType": "SINGLE"
    },
    {
      "srcAPID": 520388,
      "trgAPID": 520393,
      "bondType": "SINGLE"
    },
    {
      "srcAPID": 520391,
      "trgAPID": 520394,
      "bondType": "SINGLE"
    },
    {
      "srcAPID": 520395,
      "trgAPID": 520426,
      "bondType": "SINGLE"
    }
  ],
  "gRings": [],
  "symVertices": []
}

> <SMILES>
[Pt](C#O)(C#N)([P]1(OC2=C([H])C([H])=C3C([H])=C([H])C([H])=C(C3=C2C=4C(=C(C(=C5C(=C(C(=C(C45)[H])[H])[H])[H])[H])[H])O1)[H])OC6([H])C(C([H])([H])C(C([H])([H])C6([H])[H])([H])[H])([H])[H])C#N

$$$$
