M00003000
  CDK     04222209463D

 43 44  0  0  0  0  0  0  0  0999 V2000
   -2.4955   -0.1037    0.0537 Pt  0  0  0  0  0  0  0  0  0  0  0  0
   -4.4236   -0.2991    0.1490 C   0  0  0  0  0  0  0  0  0  0  0  0
   -5.5582   -0.4480    0.2018 O   0  0  0  0  0  0  0  0  0  0  0  0
   -2.9775    1.6870   -0.8093 O   0  0  0  0  0  0  0  0  0  0  0  0
   -2.9317    2.7038    0.1696 C   0  0  0  0  0  0  0  0  0  0  0  0
   -3.4821    3.5532   -0.2597 H   0  0  0  0  0  0  0  0  0  0  0  0
   -1.8891    2.9883    0.3627 H   0  0  0  0  0  0  0  0  0  0  0  0
   -3.4153    2.3651    1.0944 H   0  0  0  0  0  0  0  0  0  0  0  0
   -0.2194   -0.0977   -0.0120 P   0  0  0  0  0  0  0  0  0  0  0  0
    0.3103   -1.5793   -1.0539 C   0  0  0  0  0  0  0  0  0  0  0  0
   -0.1505   -2.4919   -0.5951 H   0  0  0  0  0  0  0  0  0  0  0  0
   -0.1545   -1.4870   -2.0576 H   0  0  0  0  0  0  0  0  0  0  0  0
    1.8637   -0.8193    1.8018 C   0  0  0  0  0  0  0  0  0  0  0  0
    2.5759   -0.2021    1.2094 H   0  0  0  0  0  0  0  0  0  0  0  0
    2.2241   -0.7315    2.8499 H   0  0  0  0  0  0  0  0  0  0  0  0
    1.9425   -2.2933    1.3765 C   0  0  0  0  0  0  0  0  0  0  0  0
    2.5888   -2.8419    2.0912 H   0  0  0  0  0  0  0  0  0  0  0  0
    0.9442   -2.7720    1.4738 H   0  0  0  0  0  0  0  0  0  0  0  0
    1.8224   -1.7166   -1.1657 C   0  0  0  0  0  0  0  0  0  0  0  0
    2.3232   -0.7316   -1.2630 H   0  0  0  0  0  0  0  0  0  0  0  0
    2.0516   -2.2272   -2.1284 H   0  0  0  0  0  0  0  0  0  0  0  0
    2.4850   -2.5249   -0.0384 C   0  0  0  0  0  0  0  0  0  0  0  0
    2.3855   -3.6063   -0.2686 H   0  0  0  0  0  0  0  0  0  0  0  0
    3.5738   -2.3172   -0.0529 H   0  0  0  0  0  0  0  0  0  0  0  0
    0.4497   -0.2499    1.7442 C   0  0  0  0  0  0  0  0  0  0  0  0
    0.3979    0.7383    2.2420 H   0  0  0  0  0  0  0  0  0  0  0  0
   -0.2557   -0.9185    2.3022 H   0  0  0  0  0  0  0  0  0  0  0  0
    0.5633    1.3931   -0.7857 C   0  0  0  0  0  0  0  0  0  0  0  0
    1.7087    3.6041   -2.0315 C   0  0  0  0  0  0  0  0  0  0  0  0
    1.8767    1.7542   -0.4754 C   0  0  0  0  0  0  0  0  0  0  0  0
   -0.1873    2.1262   -1.7049 C   0  0  0  0  0  0  0  0  0  0  0  0
    0.3948    3.2372   -2.3309 C   0  0  0  0  0  0  0  0  0  0  0  0
    2.4498    2.8650   -1.1010 C   0  0  0  0  0  0  0  0  0  0  0  0
    2.4733    1.1876    0.2501 H   0  0  0  0  0  0  0  0  0  0  0  0
   -1.2395    1.8757   -1.9369 H   0  0  0  0  0  0  0  0  0  0  0  0
   -0.1856    3.8151   -3.0495 H   0  0  0  0  0  0  0  0  0  0  0  0
    3.4714    3.1566   -0.8660 H   0  0  0  0  0  0  0  0  0  0  0  0
    2.1584    4.4682   -2.5198 H   0  0  0  0  0  0  0  0  0  0  0  0
   -1.7768   -1.8685    0.8025 O   0  0  0  0  0  0  0  0  0  0  0  0
   -2.7534   -2.6432    1.4585 C   0  0  0  0  0  0  0  0  0  0  0  0
   -3.5121   -2.9690    0.7363 H   0  0  0  0  0  0  0  0  0  0  0  0
   -3.2041   -2.0631    2.2725 H   0  0  0  0  0  0  0  0  0  0  0  0
   -2.2228   -3.5158    1.8639 H   0  0  0  0  0  0  0  0  0  0  0  0
  2  3  3  0  0  0  0
  1  2  1  0  0  0  0
  5  6  1  0  0  0  0
  5  7  1  0  0  0  0
  5  8  1  0  0  0  0
  4  5  1  0  0  0  0
  1  4  1  0  0  0  0
 10  9  1  0  0  0  0
 11 10  1  0  0  0  0
 12 10  1  0  0  0  0
 13 14  1  0  0  0  0
 13 25  1  0  0  0  0
 15 13  1  0  0  0  0
 16 13  1  0  0  0  0
 17 16  1  0  0  0  0
 18 16  1  0  0  0  0
 19 10  1  0  0  0  0
 19 22  1  0  0  0  0
 20 19  1  0  0  0  0
 21 19  1  0  0  0  0
 22 16  1  0  0  0  0
 23 22  1  0  0  0  0
 24 22  1  0  0  0  0
 25  9  1  0  0  0  0
 26 25  1  0  0  0  0
 27 25  1  0  0  0  0
  1  9  1  0  0  0  0
 28 31  1  0  0  0  0
 31 32  2  0  0  0  0
 29 32  1  0  0  0  0
 29 33  2  0  0  0  0
 30 33  1  0  0  0  0
 28 30  2  0  0  0  0
 32 36  1  0  0  0  0
 33 37  1  0  0  0  0
 29 38  1  0  0  0  0
 30 34  1  0  0  0  0
 31 35  1  0  0  0  0
  9 28  1  0  0  0  0
 40 41  1  0  0  0  0
 40 42  1  0  0  0  0
 40 43  1  0  0  0  0
 39 40  1  0  0  0  0
  1 39  1  0  0  0  0
M  END
> <PM6_ENERGY>
-389.354

> <UID>
YSBBDFJYSTUIOA-XTLNOQTMNA-N

> <FITNESS>
1.14555

> <GCODE>
3693

> <GraphENC>
3693 72_1_0,80_65_1,103_41_1,86_65_1,71241_36_1, 72_0_80_0_SINGLE_Xlig:0_Xlig:1,72_2_103_1_SINGLE_scaff:0_MPhosphine:1,72_1_86_0_SINGLE_Xlig:0_Xlig:1,103_0_71241_0_SINGLE_LPhosphineSubM:0_SubArS:1, 

> <GraphJson>
{
  "graphId": 3693,
  "gVertices": [
    {
      "lstAPs": [
        {
          "id": 94317,
          "atomPositionNumber": 0,
          "atomPositionNumberInMol": 0,
          "apClass": {
            "rule": "Xlig",
            "subClass": 0,
            "bndTyp": "SINGLE"
          },
          "dirVec": {
            "x": -2.3339,
            "y": -0.0087,
            "z": 0.8172
          }
        },
        {
          "id": 94318,
          "atomPositionNumber": 0,
          "atomPositionNumberInMol": 0,
          "apClass": {
            "rule": "Xlig",
            "subClass": 0,
            "bndTyp": "SINGLE"
          },
          "dirVec": {
            "x": 2.336,
            "y": -5.0E-4,
            "z": 0.829
          }
        },
        {
          "id": 94319,
          "atomPositionNumber": 0,
          "atomPositionNumberInMol": 0,
          "apClass": {
            "rule": "scaff",
            "subClass": 0,
            "bndTyp": "SINGLE"
          },
          "dirVec": {
            "x": -0.0095,
            "y": 0.0046,
            "z": -1.7113
          }
        }
      ],
      "lstSymAPs": [
        {
          "symIds": [
            0,
            1
          ]
        }
      ],
      "mol": {
        "atoms": [
          {
            "elSymbol": "Pt",
            "p3d": {
              "x": -0.0098,
              "y": 0.0049,
              "z": 0.6289
            }
          },
          {
            "elSymbol": "C",
            "p3d": {
              "x": -6.0E-4,
              "y": 0.0016,
              "z": 2.5609
            }
          },
          {
            "elSymbol": "O",
            "p3d": {
              "x": 0.0025,
              "y": -0.0041,
              "z": 3.6974
            }
          },
          {
            "elSymbol": "Du",
            "p3d": {
              "x": -0.007,
              "y": 1.0013,
              "z": 0.6372
            }
          },
          {
            "elSymbol": "Du",
            "p3d": {
              "x": -0.0014,
              "y": 0.9902,
              "z": 2.5698
            }
          }
        ],
        "bonds": [
          {
            "atomIds": [
              1,
              2
            ],
            "bo": "TRIPLE"
          },
          {
            "atomIds": [
              0,
              1
            ],
            "bo": "SINGLE"
          },
          {
            "atomIds": [
              3,
              0
            ],
            "bo": "SINGLE"
          },
          {
            "atomIds": [
              4,
              1
            ],
            "bo": "SINGLE"
          }
        ]
      },
      "vertexId": 72,
      "buildingBlockId": 0,
      "buildingBlockType": "SCAFFOLD",
      "isRCV": false,
      "properties": {
        "ATTACHMENT_POINTS": "1#Xlig:0:SINGLE:-2.3339%-0.0087%0.8172,Xlig:0:SINGLE:2.3360%-0.0005%0.8290,scaff:0:SINGLE:-0.0095%0.0046%-1.7113 "
      },
      "uniquefyingPropertyKeys": [],
      "allowedMutationTypes": [
        "DELETE",
        "EXTEND",
        "CHANGEBRANCH",
        "CHANGELINK",
        "ADDLINK",
        "DELETELINK",
        "DELETECHAIN"
      ],
      "vertexType": "MolecularFragment"
    },
    {
      "lstAPs": [
        {
          "id": 94320,
          "atomPositionNumber": 0,
          "atomPositionNumberInMol": 5,
          "apClass": {
            "rule": "Xlig",
            "subClass": 1,
            "bndTyp": "SINGLE"
          },
          "dirVec": {
            "x": -0.1753,
            "y": 0.0948,
            "z": -0.4464
          }
        }
      ],
      "lstSymAPs": [],
      "mol": {
        "atoms": [
          {
            "elSymbol": "O",
            "p3d": {
              "x": -0.3534,
              "y": 2.1044,
              "z": -0.7339
            }
          },
          {
            "elSymbol": "C",
            "p3d": {
              "x": -0.5345,
              "y": 2.7646,
              "z": 0.4801
            }
          },
          {
            "elSymbol": "H",
            "p3d": {
              "x": -0.3728,
              "y": 3.8337,
              "z": 0.2724
            }
          },
          {
            "elSymbol": "H",
            "p3d": {
              "x": 0.1816,
              "y": 2.4161,
              "z": 1.2384
            }
          },
          {
            "elSymbol": "H",
            "p3d": {
              "x": -1.553,
              "y": 2.6149,
              "z": 0.8489
            }
          }
        ],
        "bonds": [
          {
            "atomIds": [
              1,
              2
            ],
            "bo": "SINGLE"
          },
          {
            "atomIds": [
              1,
              3
            ],
            "bo": "SINGLE"
          },
          {
            "atomIds": [
              1,
              4
            ],
            "bo": "SINGLE"
          },
          {
            "atomIds": [
              0,
              1
            ],
            "bo": "SINGLE"
          }
        ]
      },
      "vertexId": 80,
      "buildingBlockId": 64,
      "buildingBlockType": "FRAGMENT",
      "isRCV": false,
      "properties": {
        "ATTACHMENT_POINTS": "1#Xlig:1:SINGLE:-0.1753%0.0948%-0.4464 "
      },
      "uniquefyingPropertyKeys": [],
      "allowedMutationTypes": [
        "DELETE",
        "EXTEND",
        "CHANGEBRANCH",
        "CHANGELINK",
        "ADDLINK",
        "DELETELINK",
        "DELETECHAIN"
      ],
      "vertexType": "MolecularFragment"
    },
    {
      "lstAPs": [
        {
          "id": 94321,
          "atomPositionNumber": 0,
          "atomPositionNumberInMol": 10,
          "apClass": {
            "rule": "LPhosphineSubM",
            "subClass": 0,
            "bndTyp": "SINGLE"
          },
          "dirVec": {
            "x": 10.5741,
            "y": 2.388,
            "z": 3.5052
          }
        },
        {
          "id": 94322,
          "atomPositionNumber": 0,
          "atomPositionNumberInMol": 10,
          "apClass": {
            "rule": "MPhosphine",
            "subClass": 1,
            "bndTyp": "SINGLE"
          },
          "dirVec": {
            "x": 9.1744,
            "y": 5.4814,
            "z": 2.7926
          }
        }
      ],
      "lstSymAPs": [],
      "mol": {
        "atoms": [
          {
            "elSymbol": "P",
            "p3d": {
              "x": 10.8769,
              "y": 4.0494,
              "z": 2.7954
            }
          },
          {
            "elSymbol": "C",
            "p3d": {
              "x": 12.1798,
              "y": 4.6169,
              "z": 3.946
            }
          },
          {
            "elSymbol": "H",
            "p3d": {
              "x": 12.4917,
              "y": 5.6265,
              "z": 3.6448
            }
          },
          {
            "elSymbol": "H",
            "p3d": {
              "x": 11.7572,
              "y": 4.6829,
              "z": 4.9359
            }
          },
          {
            "elSymbol": "C",
            "p3d": {
              "x": 13.105,
              "y": 3.3948,
              "z": 1.0043
            }
          },
          {
            "elSymbol": "H",
            "p3d": {
              "x": 13.2476,
              "y": 2.4369,
              "z": 1.512
            }
          },
          {
            "elSymbol": "H",
            "p3d": {
              "x": 13.3426,
              "y": 3.2455,
              "z": -0.0523
            }
          },
          {
            "elSymbol": "C",
            "p3d": {
              "x": 14.0865,
              "y": 4.4359,
              "z": 1.5921
            }
          },
          {
            "elSymbol": "H",
            "p3d": {
              "x": 14.9506,
              "y": 4.4888,
              "z": 0.9474
            }
          },
          {
            "elSymbol": "H",
            "p3d": {
              "x": 13.5947,
              "y": 5.412,
              "z": 1.5613
            }
          },
          {
            "elSymbol": "C",
            "p3d": {
              "x": 13.4292,
              "y": 3.7407,
              "z": 4.0211
            }
          },
          {
            "elSymbol": "H",
            "p3d": {
              "x": 13.1512,
              "y": 2.7042,
              "z": 3.8217
            }
          },
          {
            "elSymbol": "H",
            "p3d": {
              "x": 13.8508,
              "y": 3.7903,
              "z": 5.0209
            }
          },
          {
            "elSymbol": "C",
            "p3d": {
              "x": 14.5313,
              "y": 4.1509,
              "z": 3.0247
            }
          },
          {
            "elSymbol": "H",
            "p3d": {
              "x": 15.0393,
              "y": 5.0334,
              "z": 3.3968
            }
          },
          {
            "elSymbol": "H",
            "p3d": {
              "x": 15.284,
              "y": 3.3564,
              "z": 2.9969
            }
          },
          {
            "elSymbol": "C",
            "p3d": {
              "x": 11.628,
              "y": 3.8158,
              "z": 1.119
            }
          },
          {
            "elSymbol": "H",
            "p3d": {
              "x": 11.0357,
              "y": 3.0492,
              "z": 0.6032
            }
          },
          {
            "elSymbol": "H",
            "p3d": {
              "x": 11.5015,
              "y": 4.7365,
              "z": 0.5787
            }
          }
        ],
        "bonds": [
          {
            "atomIds": [
              1,
              0
            ],
            "bo": "SINGLE"
          },
          {
            "atomIds": [
              2,
              1
            ],
            "bo": "SINGLE"
          },
          {
            "atomIds": [
              3,
              1
            ],
            "bo": "SINGLE"
          },
          {
            "atomIds": [
              4,
              5
            ],
            "bo": "SINGLE"
          },
          {
            "atomIds": [
              4,
              16
            ],
            "bo": "SINGLE"
          },
          {
            "atomIds": [
              6,
              4
            ],
            "bo": "SINGLE"
          },
          {
            "atomIds": [
              7,
              4
            ],
            "bo": "SINGLE"
          },
          {
            "atomIds": [
              8,
              7
            ],
            "bo": "SINGLE"
          },
          {
            "atomIds": [
              9,
              7
            ],
            "bo": "SINGLE"
          },
          {
            "atomIds": [
              10,
              1
            ],
            "bo": "SINGLE"
          },
          {
            "atomIds": [
              10,
              13
            ],
            "bo": "SINGLE"
          },
          {
            "atomIds": [
              11,
              10
            ],
            "bo": "SINGLE"
          },
          {
            "atomIds": [
              12,
              10
            ],
            "bo": "SINGLE"
          },
          {
            "atomIds": [
              13,
              7
            ],
            "bo": "SINGLE"
          },
          {
            "atomIds": [
              14,
              13
            ],
            "bo": "SINGLE"
          },
          {
            "atomIds": [
              15,
              13
            ],
            "bo": "SINGLE"
          },
          {
            "atomIds": [
              16,
              0
            ],
            "bo": "SINGLE"
          },
          {
            "atomIds": [
              17,
              16
            ],
            "bo": "SINGLE"
          },
          {
            "atomIds": [
              18,
              16
            ],
            "bo": "SINGLE"
          }
        ]
      },
      "vertexId": 103,
      "buildingBlockId": 40,
      "buildingBlockType": "FRAGMENT",
      "isRCV": false,
      "properties": {
        "ATTACHMENT_POINTS": "1#LPhosphineSubM:0:SINGLE:10.5741%2.3880%3.5052,MPhosphine:1:SINGLE:9.1744%5.4814%2.7926 "
      },
      "uniquefyingPropertyKeys": [],
      "allowedMutationTypes": [
        "DELETE",
        "EXTEND",
        "CHANGEBRANCH",
        "CHANGELINK",
        "ADDLINK",
        "DELETELINK",
        "DELETECHAIN"
      ],
      "vertexType": "MolecularFragment"
    },
    {
      "lstAPs": [
        {
          "id": 94323,
          "atomPositionNumber": 0,
          "atomPositionNumberInMol": 40,
          "apClass": {
            "rule": "Xlig",
            "subClass": 1,
            "bndTyp": "SINGLE"
          },
          "dirVec": {
            "x": -0.1753,
            "y": 0.0948,
            "z": -0.4464
          }
        }
      ],
      "lstSymAPs": [],
      "mol": {
        "atoms": [
          {
            "elSymbol": "O",
            "p3d": {
              "x": -0.3534,
              "y": 2.1044,
              "z": -0.7339
            }
          },
          {
            "elSymbol": "C",
            "p3d": {
              "x": -0.5345,
              "y": 2.7646,
              "z": 0.4801
            }
          },
          {
            "elSymbol": "H",
            "p3d": {
              "x": -0.3728,
              "y": 3.8337,
              "z": 0.2724
            }
          },
          {
            "elSymbol": "H",
            "p3d": {
              "x": 0.1816,
              "y": 2.4161,
              "z": 1.2384
            }
          },
          {
            "elSymbol": "H",
            "p3d": {
              "x": -1.553,
              "y": 2.6149,
              "z": 0.8489
            }
          }
        ],
        "bonds": [
          {
            "atomIds": [
              1,
              2
            ],
            "bo": "SINGLE"
          },
          {
            "atomIds": [
              1,
              3
            ],
            "bo": "SINGLE"
          },
          {
            "atomIds": [
              1,
              4
            ],
            "bo": "SINGLE"
          },
          {
            "atomIds": [
              0,
              1
            ],
            "bo": "SINGLE"
          }
        ]
      },
      "vertexId": 86,
      "buildingBlockId": 64,
      "buildingBlockType": "FRAGMENT",
      "isRCV": false,
      "properties": {
        "ATTACHMENT_POINTS": "1#Xlig:1:SINGLE:-0.1753%0.0948%-0.4464 "
      },
      "uniquefyingPropertyKeys": [],
      "allowedMutationTypes": [
        "DELETE",
        "EXTEND",
        "CHANGEBRANCH",
        "CHANGELINK",
        "ADDLINK",
        "DELETELINK",
        "DELETECHAIN"
      ],
      "vertexType": "MolecularFragment"
    },
    {
      "lstAPs": [
        {
          "id": 94348,
          "atomPositionNumber": 0,
          "atomPositionNumberInMol": 29,
          "apClass": {
            "rule": "SubArS",
            "subClass": 1,
            "bndTyp": "SINGLE"
          },
          "dirVec": {
            "x": 0.2973,
            "y": 0.3873,
            "z": -0.6389
          }
        }
      ],
      "lstSymAPs": [],
      "mol": {
        "atoms": [
          {
            "elSymbol": "C",
            "p3d": {
              "x": 1.6995,
              "y": 0.5593,
              "z": -1.2083
            }
          },
          {
            "elSymbol": "C",
            "p3d": {
              "x": 4.2563,
              "y": 0.8754,
              "z": -2.2592
            }
          },
          {
            "elSymbol": "C",
            "p3d": {
              "x": 2.3334,
              "y": 1.79,
              "z": -1.1338
            }
          },
          {
            "elSymbol": "C",
            "p3d": {
              "x": 2.3422,
              "y": -0.5107,
              "z": -1.8125
            }
          },
          {
            "elSymbol": "C",
            "p3d": {
              "x": 3.612,
              "y": -0.3527,
              "z": -2.3321
            }
          },
          {
            "elSymbol": "C",
            "p3d": {
              "x": 3.6062,
              "y": 1.9513,
              "z": -1.6526
            }
          },
          {
            "elSymbol": "H",
            "p3d": {
              "x": 1.833,
              "y": 2.6461,
              "z": -0.6488
            }
          },
          {
            "elSymbol": "H",
            "p3d": {
              "x": 1.8361,
              "y": -1.4773,
              "z": -1.887
            }
          },
          {
            "elSymbol": "H",
            "p3d": {
              "x": 4.115,
              "y": -1.2043,
              "z": -2.8152
            }
          },
          {
            "elSymbol": "H",
            "p3d": {
              "x": 4.1097,
              "y": 2.9214,
              "z": -1.5842
            }
          },
          {
            "elSymbol": "H",
            "p3d": {
              "x": 5.2498,
              "y": 0.9926,
              "z": -2.665
            }
          }
        ],
        "bonds": [
          {
            "atomIds": [
              0,
              3
            ],
            "bo": "SINGLE"
          },
          {
            "atomIds": [
              3,
              4
            ],
            "bo": "DOUBLE"
          },
          {
            "atomIds": [
              1,
              4
            ],
            "bo": "SINGLE"
          },
          {
            "atomIds": [
              1,
              5
            ],
            "bo": "DOUBLE"
          },
          {
            "atomIds": [
              2,
              5
            ],
            "bo": "SINGLE"
          },
          {
            "atomIds": [
              0,
              2
            ],
            "bo": "DOUBLE"
          },
          {
            "atomIds": [
              4,
              8
            ],
            "bo": "SINGLE"
          },
          {
            "atomIds": [
              5,
              9
            ],
            "bo": "SINGLE"
          },
          {
            "atomIds": [
              1,
              10
            ],
            "bo": "SINGLE"
          },
          {
            "atomIds": [
              2,
              6
            ],
            "bo": "SINGLE"
          },
          {
            "atomIds": [
              3,
              7
            ],
            "bo": "SINGLE"
          }
        ]
      },
      "vertexId": 71241,
      "buildingBlockId": 35,
      "buildingBlockType": "FRAGMENT",
      "isRCV": false,
      "properties": {
        "ATTACHMENT_POINTS": "1#SubArS:1:SINGLE:0.2973%0.3873%-0.6389 "
      },
      "uniquefyingPropertyKeys": [],
      "allowedMutationTypes": [
        "DELETE",
        "EXTEND",
        "CHANGEBRANCH",
        "CHANGELINK",
        "ADDLINK",
        "DELETELINK",
        "DELETECHAIN"
      ],
      "vertexType": "MolecularFragment"
    }
  ],
  "gEdges": [
    {
      "srcAPID": 94317,
      "trgAPID": 94320,
      "bondType": "SINGLE"
    },
    {
      "srcAPID": 94319,
      "trgAPID": 94322,
      "bondType": "SINGLE"
    },
    {
      "srcAPID": 94318,
      "trgAPID": 94323,
      "bondType": "SINGLE"
    },
    {
      "srcAPID": 94321,
      "trgAPID": 94348,
      "bondType": "SINGLE"
    }
  ],
  "gRings": [],
  "symVertices": []
}

> <SMILES>
[Pt](C#O)(OC([H])([H])[H])([P]1(C([H])([H])C(C(C(C([H])(C1([H])[H])[H])([H])[H])([H])[H])([H])[H])C=2C(=C(C(=C(C2[H])[H])[H])[H])[H])OC([H])([H])[H]

$$$$
