M00004774
  CDK     04222210253D

 56 58  0  0  0  0  0  0  0  0999 V2000
    2.4136   -0.3394    0.2008 Pt  0  0  0  0  0  0  0  0  0  0  0  0
    4.3415   -0.2543    0.0133 C   0  0  0  0  0  0  0  0  0  0  0  0
    5.4756   -0.1610   -0.1038 O   0  0  0  0  0  0  0  0  0  0  0  0
    2.5761   -2.3589    0.4906 O   0  0  0  0  0  0  0  0  0  0  0  0
    2.4172   -2.6481    1.8608 C   0  0  0  0  0  0  0  0  0  0  0  0
    2.7497   -3.6887    1.9860 H   0  0  0  0  0  0  0  0  0  0  0  0
    1.3600   -2.5491    2.1384 H   0  0  0  0  0  0  0  0  0  0  0  0
    3.0402   -1.9742    2.4647 H   0  0  0  0  0  0  0  0  0  0  0  0
   -0.3485    0.1641    1.2798 N   0  0  0  0  0  0  0  0  0  0  0  0
    0.4261   -0.3256    0.3226 C   0  0  2  0  0  0  0  0  0  0  0  0
   -0.4027   -0.9513   -0.7993 C   0  0  1  0  0  0  0  0  0  0  0  0
   -1.8776   -0.6528   -0.3939 C   0  0  0  0  0  0  0  0  0  0  0  0
   -1.8554    0.0330    0.9994 C   0  0  0  0  0  0  0  0  0  0  0  0
   -2.3632   -0.0048   -1.1488 H   0  0  0  0  0  0  0  0  0  0  0  0
   -2.4773   -1.5776   -0.3800 H   0  0  0  0  0  0  0  0  0  0  0  0
    0.0144   -0.3177   -2.1598 C   0  0  0  0  0  0  0  0  0  0  0  0
    1.1357   -0.3961   -2.2226 H   0  0  0  0  0  0  0  0  0  0  0  0
   -0.3698    1.1747   -2.2447 C   0  0  0  0  0  0  0  0  0  0  0  0
   -1.4677    1.2901   -2.1577 H   0  0  0  0  0  0  0  0  0  0  0  0
    0.0733    1.7347   -1.3987 H   0  0  0  0  0  0  0  0  0  0  0  0
    0.1097    1.7881   -3.5668 C   0  0  0  0  0  0  0  0  0  0  0  0
    1.2178    1.7761   -3.6006 H   0  0  0  0  0  0  0  0  0  0  0  0
   -0.1807    2.8539   -3.6132 H   0  0  0  0  0  0  0  0  0  0  0  0
   -0.4609    1.0312   -4.7731 C   0  0  0  0  0  0  0  0  0  0  0  0
   -1.5571    1.1719   -4.8214 H   0  0  0  0  0  0  0  0  0  0  0  0
   -0.0555    1.4544   -5.7108 H   0  0  0  0  0  0  0  0  0  0  0  0
   -0.1306   -0.4649   -4.6881 C   0  0  0  0  0  0  0  0  0  0  0  0
   -0.6002   -1.0048   -5.5310 H   0  0  0  0  0  0  0  0  0  0  0  0
    0.9616   -0.6120   -4.8010 H   0  0  0  0  0  0  0  0  0  0  0  0
   -0.5985   -1.0718   -3.3575 C   0  0  0  0  0  0  0  0  0  0  0  0
   -0.3141   -2.1414   -3.3235 H   0  0  0  0  0  0  0  0  0  0  0  0
   -1.7020   -1.0432   -3.2995 H   0  0  0  0  0  0  0  0  0  0  0  0
   -2.4707    1.4306    0.9729 C   0  0  0  0  0  0  0  0  0  0  0  0
   -1.9829    2.0831    0.2351 H   0  0  0  0  0  0  0  0  0  0  0  0
   -2.3950    1.9354    1.9453 H   0  0  0  0  0  0  0  0  0  0  0  0
   -3.5361    1.3879    0.7149 H   0  0  0  0  0  0  0  0  0  0  0  0
    0.1348    0.7886    2.5029 C   0  0  0  0  0  0  0  0  0  0  0  0
    1.0065    1.9958    4.8521 C   0  0  0  0  0  0  0  0  0  0  0  0
    0.2183    0.0249    3.6777 C   0  0  0  0  0  0  0  0  0  0  0  0
    0.4916    2.1450    2.4857 C   0  0  0  0  0  0  0  0  0  0  0  0
    0.9295    2.7416    3.6716 C   0  0  0  0  0  0  0  0  0  0  0  0
    0.6548    0.6414    4.8529 C   0  0  0  0  0  0  0  0  0  0  0  0
   -0.0413   -1.0323    3.6744 H   0  0  0  0  0  0  0  0  0  0  0  0
    0.4532    2.7207    1.5568 H   0  0  0  0  0  0  0  0  0  0  0  0
    1.2213    3.7927    3.6682 H   0  0  0  0  0  0  0  0  0  0  0  0
    0.7269    0.0610    5.7725 H   0  0  0  0  0  0  0  0  0  0  0  0
    1.3495    2.4686    5.7722 H   0  0  0  0  0  0  0  0  0  0  0  0
   -0.1135   -2.4552   -0.7598 C   0  0  0  0  0  0  0  0  0  0  0  0
   -0.4289   -2.9154    0.1823 H   0  0  0  0  0  0  0  0  0  0  0  0
   -0.6105   -2.9912   -1.5753 H   0  0  0  0  0  0  0  0  0  0  0  0
    0.9743   -2.6609   -0.8479 H   0  0  0  0  0  0  0  0  0  0  0  0
   -2.4992   -0.8360    2.0784 C   0  0  0  0  0  0  0  0  0  0  0  0
   -2.0342   -1.8277    2.1437 H   0  0  0  0  0  0  0  0  0  0  0  0
   -3.5653   -0.9927    1.8679 H   0  0  0  0  0  0  0  0  0  0  0  0
   -2.4384   -0.3758    3.0735 H   0  0  0  0  0  0  0  0  0  0  0  0
    2.4043    1.9352   -0.1786 Cl  0  0  0  0  0  0  0  0  0  0  0  0
  2  3  3  0  0  0  0
  1  2  1  0  0  0  0
  5  6  1  0  0  0  0
  5  7  1  0  0  0  0
  5  8  1  0  0  0  0
  4  5  1  0  0  0  0
  1  4  1  0  0  0  0
  9 10  1  0  0  0  0
 11 10  1  0  0  0  0
 12 11  1  0  0  0  0
 13  9  1  0  0  0  0
 14 12  1  0  0  0  0
 15 12  1  0  0  0  0
 12 13  1  0  0  0  0
  1 10  1  0  0  0  0
 17 16  1  0  0  0  0
 18 16  1  0  0  0  0
 19 18  1  0  0  0  0
 20 18  1  0  0  0  0
 21 18  1  0  0  0  0
 22 21  1  0  0  0  0
 23 21  1  0  0  0  0
 24 21  1  0  0  0  0
 25 24  1  0  0  0  0
 26 24  1  0  0  0  0
 27 24  1  0  0  0  0
 28 27  1  0  0  0  0
 29 27  1  0  0  0  0
 30 16  1  0  0  0  0
 31 30  1  0  0  0  0
 32 30  1  0  0  0  0
 27 30  1  0  0  0  0
 11 16  1  0  0  0  0
 34 33  1  0  0  0  0
 35 33  1  0  0  0  0
 36 33  1  0  0  0  0
 13 33  1  0  0  0  0
 37 40  1  0  0  0  0
 40 41  2  0  0  0  0
 38 41  1  0  0  0  0
 38 42  2  0  0  0  0
 39 42  1  0  0  0  0
 37 39  2  0  0  0  0
 41 45  1  0  0  0  0
 42 46  1  0  0  0  0
 38 47  1  0  0  0  0
 39 43  1  0  0  0  0
 40 44  1  0  0  0  0
  9 37  1  0  0  0  0
 49 48  1  0  0  0  0
 50 48  1  0  0  0  0
 51 48  1  0  0  0  0
 11 48  1  0  0  0  0
 53 52  1  0  0  0  0
 54 52  1  0  0  0  0
 55 52  1  0  0  0  0
 13 52  1  0  0  0  0
  1 56  1  0  0  0  0
M  END
> <PM6_ENERGY>
-303.736

> <UID>
ONNSZHUUCGTKRU-ARHRNHDKNA-M

> <FITNESS>
1.14394

> <GCODE>
5553

> <GraphENC>
5553 72_1_0,80_65_1,92_14_1,88_67_1,109151_26_1,109161_28_1,109141_36_1,109156_23_1,109577_28_1, 72_0_80_0_SINGLE_Xlig:0_Xlig:1,72_2_92_1_SINGLE_scaff:0_MPyrrolidinylidene:1,72_1_88_0_SINGLE_Xlig:0_Xlig:1,92_2_109151_0_SINGLE_LPyrrolidinylideneSubCGammaL:0_LPyrrolidinylideneSubCGammaL:1,92_4_109161_0_SINGLE_LPyrrolidinylideneSubCAlpha:0_LPyrrolidinylideneSubCAlpha:1,92_0_109141_0_SINGLE_LPyrrolidinylideneSubNS:0_SubArS:1,92_3_109156_0_SINGLE_LPyrrolidinylideneSubCGammaS:0_LPyrrolidinylideneSubCGammaS:1,92_5_109577_0_SINGLE_LPyrrolidinylideneSubCAlpha:0_LPyrrolidinylideneSubCAlpha:1, SymmetricSet [symIds=[109161, 109577]] 

> <GraphJson>
{
  "graphId": 5553,
  "gVertices": [
    {
      "lstAPs": [
        {
          "id": 143918,
          "atomPositionNumber": 0,
          "atomPositionNumberInMol": 0,
          "apClass": {
            "rule": "Xlig",
            "subClass": 0,
            "bndTyp": "SINGLE"
          },
          "dirVec": {
            "x": -2.3339,
            "y": -0.0087,
            "z": 0.8172
          }
        },
        {
          "id": 143919,
          "atomPositionNumber": 0,
          "atomPositionNumberInMol": 0,
          "apClass": {
            "rule": "Xlig",
            "subClass": 0,
            "bndTyp": "SINGLE"
          },
          "dirVec": {
            "x": 2.336,
            "y": -5.0E-4,
            "z": 0.829
          }
        },
        {
          "id": 143920,
          "atomPositionNumber": 0,
          "atomPositionNumberInMol": 0,
          "apClass": {
            "rule": "scaff",
            "subClass": 0,
            "bndTyp": "SINGLE"
          },
          "dirVec": {
            "x": -0.0095,
            "y": 0.0046,
            "z": -1.7113
          }
        }
      ],
      "lstSymAPs": [
        {
          "symIds": [
            0,
            1
          ]
        }
      ],
      "mol": {
        "atoms": [
          {
            "elSymbol": "Pt",
            "p3d": {
              "x": -0.0098,
              "y": 0.0049,
              "z": 0.6289
            }
          },
          {
            "elSymbol": "C",
            "p3d": {
              "x": -6.0E-4,
              "y": 0.0016,
              "z": 2.5609
            }
          },
          {
            "elSymbol": "O",
            "p3d": {
              "x": 0.0025,
              "y": -0.0041,
              "z": 3.6974
            }
          },
          {
            "elSymbol": "Du",
            "p3d": {
              "x": -0.007,
              "y": 1.0013,
              "z": 0.6372
            }
          },
          {
            "elSymbol": "Du",
            "p3d": {
              "x": -0.0014,
              "y": 0.9902,
              "z": 2.5698
            }
          }
        ],
        "bonds": [
          {
            "atomIds": [
              1,
              2
            ],
            "bo": "TRIPLE"
          },
          {
            "atomIds": [
              0,
              1
            ],
            "bo": "SINGLE"
          },
          {
            "atomIds": [
              3,
              0
            ],
            "bo": "SINGLE"
          },
          {
            "atomIds": [
              4,
              1
            ],
            "bo": "SINGLE"
          }
        ]
      },
      "vertexId": 72,
      "buildingBlockId": 0,
      "buildingBlockType": "SCAFFOLD",
      "isRCV": false,
      "properties": {
        "ATTACHMENT_POINTS": "1#Xlig:0:SINGLE:-2.3339%-0.0087%0.8172,Xlig:0:SINGLE:2.3360%-0.0005%0.8290,scaff:0:SINGLE:-0.0095%0.0046%-1.7113 "
      },
      "uniquefyingPropertyKeys": [],
      "allowedMutationTypes": [
        "DELETE",
        "EXTEND",
        "CHANGEBRANCH",
        "CHANGELINK",
        "ADDLINK",
        "DELETELINK",
        "DELETECHAIN"
      ],
      "vertexType": "MolecularFragment"
    },
    {
      "lstAPs": [
        {
          "id": 143921,
          "atomPositionNumber": 0,
          "atomPositionNumberInMol": 5,
          "apClass": {
            "rule": "Xlig",
            "subClass": 1,
            "bndTyp": "SINGLE"
          },
          "dirVec": {
            "x": -0.1753,
            "y": 0.0948,
            "z": -0.4464
          }
        }
      ],
      "lstSymAPs": [],
      "mol": {
        "atoms": [
          {
            "elSymbol": "O",
            "p3d": {
              "x": -0.3534,
              "y": 2.1044,
              "z": -0.7339
            }
          },
          {
            "elSymbol": "C",
            "p3d": {
              "x": -0.5345,
              "y": 2.7646,
              "z": 0.4801
            }
          },
          {
            "elSymbol": "H",
            "p3d": {
              "x": -0.3728,
              "y": 3.8337,
              "z": 0.2724
            }
          },
          {
            "elSymbol": "H",
            "p3d": {
              "x": 0.1816,
              "y": 2.4161,
              "z": 1.2384
            }
          },
          {
            "elSymbol": "H",
            "p3d": {
              "x": -1.553,
              "y": 2.6149,
              "z": 0.8489
            }
          }
        ],
        "bonds": [
          {
            "atomIds": [
              1,
              2
            ],
            "bo": "SINGLE"
          },
          {
            "atomIds": [
              1,
              3
            ],
            "bo": "SINGLE"
          },
          {
            "atomIds": [
              1,
              4
            ],
            "bo": "SINGLE"
          },
          {
            "atomIds": [
              0,
              1
            ],
            "bo": "SINGLE"
          }
        ]
      },
      "vertexId": 80,
      "buildingBlockId": 64,
      "buildingBlockType": "FRAGMENT",
      "isRCV": false,
      "properties": {
        "ATTACHMENT_POINTS": "1#Xlig:1:SINGLE:-0.1753%0.0948%-0.4464 "
      },
      "uniquefyingPropertyKeys": [],
      "allowedMutationTypes": [
        "DELETE",
        "EXTEND",
        "CHANGEBRANCH",
        "CHANGELINK",
        "ADDLINK",
        "DELETELINK",
        "DELETECHAIN"
      ],
      "vertexType": "MolecularFragment"
    },
    {
      "lstAPs": [
        {
          "id": 143922,
          "atomPositionNumber": 0,
          "atomPositionNumberInMol": 10,
          "apClass": {
            "rule": "LPyrrolidinylideneSubNS",
            "subClass": 0,
            "bndTyp": "SINGLE"
          },
          "dirVec": {
            "x": 1.1368,
            "y": 2.9892,
            "z": 6.3678
          }
        },
        {
          "id": 143923,
          "atomPositionNumber": 1,
          "atomPositionNumberInMol": 11,
          "apClass": {
            "rule": "MPyrrolidinylidene",
            "subClass": 1,
            "bndTyp": "SINGLE"
          },
          "dirVec": {
            "x": 1.1351,
            "y": 5.0475,
            "z": 3.8064
          }
        },
        {
          "id": 143924,
          "atomPositionNumber": 2,
          "atomPositionNumberInMol": 12,
          "apClass": {
            "rule": "LPyrrolidinylideneSubCGammaL",
            "subClass": 0,
            "bndTyp": "SINGLE"
          },
          "dirVec": {
            "x": -1.6533,
            "y": 3.6844,
            "z": 2.5584
          }
        },
        {
          "id": 143925,
          "atomPositionNumber": 2,
          "atomPositionNumberInMol": 12,
          "apClass": {
            "rule": "LPyrrolidinylideneSubCGammaS",
            "subClass": 0,
            "bndTyp": "SINGLE"
          },
          "dirVec": {
            "x": 0.2707,
            "y": 2.2373,
            "z": 1.9364
          }
        },
        {
          "id": 143926,
          "atomPositionNumber": 4,
          "atomPositionNumberInMol": 14,
          "apClass": {
            "rule": "LPyrrolidinylideneSubCAlpha",
            "subClass": 0,
            "bndTyp": "SINGLE"
          },
          "dirVec": {
            "x": -1.0798,
            "y": 0.961,
            "z": 6.3715
          }
        },
        {
          "id": 143927,
          "atomPositionNumber": 4,
          "atomPositionNumberInMol": 14,
          "apClass": {
            "rule": "LPyrrolidinylideneSubCAlpha",
            "subClass": 0,
            "bndTyp": "SINGLE"
          },
          "dirVec": {
            "x": 0.6851,
            "y": 0.1558,
            "z": 4.841
          }
        }
      ],
      "lstSymAPs": [
        {
          "symIds": [
            4,
            5
          ]
        }
      ],
      "mol": {
        "atoms": [
          {
            "elSymbol": "N",
            "p3d": {
              "x": 0.4064,
              "y": 2.6218,
              "z": 5.1898
            }
          },
          {
            "elSymbol": "C",
            "p3d": {
              "x": 0.2992,
              "y": 3.4375,
              "z": 4.1309
            }
          },
          {
            "elSymbol": "C",
            "p3d": {
              "x": -0.589,
              "y": 2.7266,
              "z": 3.1026
            }
          },
          {
            "elSymbol": "C",
            "p3d": {
              "x": -1.2268,
              "y": 1.5592,
              "z": 3.8965
            }
          },
          {
            "elSymbol": "C",
            "p3d": {
              "x": -0.3002,
              "y": 1.286,
              "z": 5.1014
            }
          },
          {
            "elSymbol": "H",
            "p3d": {
              "x": -2.2272,
              "y": 1.8381,
              "z": 4.2502
            }
          },
          {
            "elSymbol": "H",
            "p3d": {
              "x": -1.3141,
              "y": 0.6862,
              "z": 3.272
            }
          }
        ],
        "bonds": [
          {
            "atomIds": [
              0,
              1
            ],
            "bo": "SINGLE"
          },
          {
            "atomIds": [
              2,
              1
            ],
            "bo": "SINGLE"
          },
          {
            "atomIds": [
              3,
              2
            ],
            "bo": "SINGLE"
          },
          {
            "atomIds": [
              4,
              0
            ],
            "bo": "SINGLE"
          },
          {
            "atomIds": [
              5,
              3
            ],
            "bo": "SINGLE"
          },
          {
            "atomIds": [
              6,
              3
            ],
            "bo": "SINGLE"
          },
          {
            "atomIds": [
              3,
              4
            ],
            "bo": "SINGLE"
          }
        ]
      },
      "vertexId": 92,
      "buildingBlockId": 13,
      "buildingBlockType": "FRAGMENT",
      "isRCV": false,
      "properties": {
        "ATTACHMENT_POINTS": "1#LPyrrolidinylideneSubNS:0:SINGLE:1.1368%2.9892%6.3678 2#MPyrrolidinylidene:1:SINGLE:1.1351%5.0475%3.8064 3#LPyrrolidinylideneSubCGammaL:0:SINGLE:-1.6533%3.6844%2.5584,LPyrrolidinylideneSubCGammaS:0:SINGLE:0.2707%2.2373%1.9364 5#LPyrrolidinylideneSubCAlpha:0:SINGLE:-1.0798%0.9610%6.3715,LPyrrolidinylideneSubCAlpha:0:SINGLE:0.6851%0.1558%4.8410 "
      },
      "uniquefyingPropertyKeys": [],
      "allowedMutationTypes": [
        "DELETE",
        "EXTEND",
        "CHANGEBRANCH",
        "CHANGELINK",
        "ADDLINK",
        "DELETELINK",
        "DELETECHAIN"
      ],
      "vertexType": "MolecularFragment"
    },
    {
      "lstAPs": [
        {
          "id": 143928,
          "atomPositionNumber": 0,
          "atomPositionNumberInMol": 57,
          "apClass": {
            "rule": "Xlig",
            "subClass": 1,
            "bndTyp": "SINGLE"
          },
          "dirVec": {
            "x": -0.0053,
            "y": -0.0027,
            "z": 0.63
          }
        }
      ],
      "lstSymAPs": [],
      "mol": {
        "atoms": [
          {
            "elSymbol": "Cl",
            "p3d": {
              "x": 2.3243,
              "y": -0.0063,
              "z": 0.8189
            }
          }
        ],
        "bonds": []
      },
      "vertexId": 88,
      "buildingBlockId": 66,
      "buildingBlockType": "FRAGMENT",
      "isRCV": false,
      "properties": {
        "ATTACHMENT_POINTS": "1#Xlig:1:SINGLE:-0.0053%-0.0027%0.6300 "
      },
      "uniquefyingPropertyKeys": [],
      "allowedMutationTypes": [
        "DELETE",
        "EXTEND",
        "CHANGEBRANCH",
        "CHANGELINK",
        "ADDLINK",
        "DELETELINK",
        "DELETECHAIN"
      ],
      "vertexType": "MolecularFragment"
    },
    {
      "lstAPs": [
        {
          "id": 143977,
          "atomPositionNumber": 0,
          "atomPositionNumberInMol": 17,
          "apClass": {
            "rule": "LPyrrolidinylideneSubCGammaL",
            "subClass": 1,
            "bndTyp": "SINGLE"
          },
          "dirVec": {
            "x": 6.0099,
            "y": 16.8324,
            "z": 4.6783
          }
        }
      ],
      "lstSymAPs": [],
      "mol": {
        "atoms": [
          {
            "elSymbol": "C",
            "p3d": {
              "x": 7.0469,
              "y": 16.9431,
              "z": 5.7019
            }
          },
          {
            "elSymbol": "H",
            "p3d": {
              "x": 6.8366,
              "y": 16.2215,
              "z": 6.4782
            }
          },
          {
            "elSymbol": "C",
            "p3d": {
              "x": 7.0188,
              "y": 18.3307,
              "z": 6.3405
            }
          },
          {
            "elSymbol": "H",
            "p3d": {
              "x": 7.1512,
              "y": 19.1015,
              "z": 5.5552
            }
          },
          {
            "elSymbol": "H",
            "p3d": {
              "x": 6.059,
              "y": 18.5088,
              "z": 6.8005
            }
          },
          {
            "elSymbol": "C",
            "p3d": {
              "x": 8.1195,
              "y": 18.4902,
              "z": 7.3783
            }
          },
          {
            "elSymbol": "H",
            "p3d": {
              "x": 7.9241,
              "y": 17.8059,
              "z": 8.2097
            }
          },
          {
            "elSymbol": "H",
            "p3d": {
              "x": 8.1367,
              "y": 19.4963,
              "z": 7.7724
            }
          },
          {
            "elSymbol": "C",
            "p3d": {
              "x": 9.4856,
              "y": 18.1487,
              "z": 6.8072
            }
          },
          {
            "elSymbol": "H",
            "p3d": {
              "x": 9.7484,
              "y": 18.8915,
              "z": 6.0331
            }
          },
          {
            "elSymbol": "H",
            "p3d": {
              "x": 10.2436,
              "y": 18.2256,
              "z": 7.5807
            }
          },
          {
            "elSymbol": "C",
            "p3d": {
              "x": 9.4986,
              "y": 16.7435,
              "z": 6.1995
            }
          },
          {
            "elSymbol": "H",
            "p3d": {
              "x": 10.4731,
              "y": 16.5519,
              "z": 5.7593
            }
          },
          {
            "elSymbol": "H",
            "p3d": {
              "x": 9.3317,
              "y": 16.0213,
              "z": 6.9844
            }
          },
          {
            "elSymbol": "C",
            "p3d": {
              "x": 8.4125,
              "y": 16.6187,
              "z": 5.1231
            }
          },
          {
            "elSymbol": "H",
            "p3d": {
              "x": 8.4188,
              "y": 15.5945,
              "z": 4.7488
            }
          },
          {
            "elSymbol": "H",
            "p3d": {
              "x": 8.6357,
              "y": 17.2681,
              "z": 4.2879
            }
          }
        ],
        "bonds": [
          {
            "atomIds": [
              1,
              0
            ],
            "bo": "SINGLE"
          },
          {
            "atomIds": [
              2,
              0
            ],
            "bo": "SINGLE"
          },
          {
            "atomIds": [
              3,
              2
            ],
            "bo": "SINGLE"
          },
          {
            "atomIds": [
              4,
              2
            ],
            "bo": "SINGLE"
          },
          {
            "atomIds": [
              5,
              2
            ],
            "bo": "SINGLE"
          },
          {
            "atomIds": [
              6,
              5
            ],
            "bo": "SINGLE"
          },
          {
            "atomIds": [
              7,
              5
            ],
            "bo": "SINGLE"
          },
          {
            "atomIds": [
              8,
              5
            ],
            "bo": "SINGLE"
          },
          {
            "atomIds": [
              9,
              8
            ],
            "bo": "SINGLE"
          },
          {
            "atomIds": [
              10,
              8
            ],
            "bo": "SINGLE"
          },
          {
            "atomIds": [
              11,
              8
            ],
            "bo": "SINGLE"
          },
          {
            "atomIds": [
              12,
              11
            ],
            "bo": "SINGLE"
          },
          {
            "atomIds": [
              13,
              11
            ],
            "bo": "SINGLE"
          },
          {
            "atomIds": [
              14,
              0
            ],
            "bo": "SINGLE"
          },
          {
            "atomIds": [
              15,
              14
            ],
            "bo": "SINGLE"
          },
          {
            "atomIds": [
              16,
              14
            ],
            "bo": "SINGLE"
          },
          {
            "atomIds": [
              11,
              14
            ],
            "bo": "SINGLE"
          }
        ]
      },
      "vertexId": 109151,
      "buildingBlockId": 25,
      "buildingBlockType": "FRAGMENT",
      "isRCV": false,
      "properties": {
        "ATTACHMENT_POINTS": "1#LPyrrolidinylideneSubCGammaL:1:SINGLE:6.0099%16.8324%4.6783 "
      },
      "uniquefyingPropertyKeys": [],
      "allowedMutationTypes": [
        "DELETE",
        "EXTEND",
        "CHANGEBRANCH",
        "CHANGELINK",
        "ADDLINK",
        "DELETELINK",
        "DELETECHAIN"
      ],
      "vertexType": "MolecularFragment"
    },
    {
      "lstAPs": [
        {
          "id": 143978,
          "atomPositionNumber": 0,
          "atomPositionNumberInMol": 34,
          "apClass": {
            "rule": "LPyrrolidinylideneSubCAlpha",
            "subClass": 1,
            "bndTyp": "SINGLE"
          },
          "dirVec": {
            "x": 10.5718,
            "y": 9.5818,
            "z": 19.5273
          }
        }
      ],
      "lstSymAPs": [],
      "mol": {
        "atoms": [
          {
            "elSymbol": "C",
            "p3d": {
              "x": 11.7977,
              "y": 8.6986,
              "z": 19.2649
            }
          },
          {
            "elSymbol": "H",
            "p3d": {
              "x": 11.6263,
              "y": 8.0849,
              "z": 18.3966
            }
          },
          {
            "elSymbol": "H",
            "p3d": {
              "x": 11.9867,
              "y": 8.0758,
              "z": 20.122
            }
          },
          {
            "elSymbol": "H",
            "p3d": {
              "x": 12.6717,
              "y": 9.3283,
              "z": 19.0876
            }
          }
        ],
        "bonds": [
          {
            "atomIds": [
              1,
              0
            ],
            "bo": "SINGLE"
          },
          {
            "atomIds": [
              2,
              0
            ],
            "bo": "SINGLE"
          },
          {
            "atomIds": [
              3,
              0
            ],
            "bo": "SINGLE"
          }
        ]
      },
      "vertexId": 109161,
      "buildingBlockId": 27,
      "buildingBlockType": "FRAGMENT",
      "isRCV": false,
      "properties": {
        "ATTACHMENT_POINTS": "1#LPyrrolidinylideneSubCAlpha:1:SINGLE:10.5718%9.5818%19.5273 "
      },
      "uniquefyingPropertyKeys": [],
      "allowedMutationTypes": [
        "DELETE",
        "EXTEND",
        "CHANGEBRANCH",
        "CHANGELINK",
        "ADDLINK",
        "DELETELINK",
        "DELETECHAIN"
      ],
      "vertexType": "MolecularFragment"
    },
    {
      "lstAPs": [
        {
          "id": 143979,
          "atomPositionNumber": 0,
          "atomPositionNumberInMol": 38,
          "apClass": {
            "rule": "SubArS",
            "subClass": 1,
            "bndTyp": "SINGLE"
          },
          "dirVec": {
            "x": 0.2973,
            "y": 0.3873,
            "z": -0.6389
          }
        }
      ],
      "lstSymAPs": [],
      "mol": {
        "atoms": [
          {
            "elSymbol": "C",
            "p3d": {
              "x": 1.6995,
              "y": 0.5593,
              "z": -1.2083
            }
          },
          {
            "elSymbol": "C",
            "p3d": {
              "x": 4.2563,
              "y": 0.8754,
              "z": -2.2592
            }
          },
          {
            "elSymbol": "C",
            "p3d": {
              "x": 2.3334,
              "y": 1.79,
              "z": -1.1338
            }
          },
          {
            "elSymbol": "C",
            "p3d": {
              "x": 2.3422,
              "y": -0.5107,
              "z": -1.8125
            }
          },
          {
            "elSymbol": "C",
            "p3d": {
              "x": 3.612,
              "y": -0.3527,
              "z": -2.3321
            }
          },
          {
            "elSymbol": "C",
            "p3d": {
              "x": 3.6062,
              "y": 1.9513,
              "z": -1.6526
            }
          },
          {
            "elSymbol": "H",
            "p3d": {
              "x": 1.833,
              "y": 2.6461,
              "z": -0.6488
            }
          },
          {
            "elSymbol": "H",
            "p3d": {
              "x": 1.8361,
              "y": -1.4773,
              "z": -1.887
            }
          },
          {
            "elSymbol": "H",
            "p3d": {
              "x": 4.115,
              "y": -1.2043,
              "z": -2.8152
            }
          },
          {
            "elSymbol": "H",
            "p3d": {
              "x": 4.1097,
              "y": 2.9214,
              "z": -1.5842
            }
          },
          {
            "elSymbol": "H",
            "p3d": {
              "x": 5.2498,
              "y": 0.9926,
              "z": -2.665
            }
          }
        ],
        "bonds": [
          {
            "atomIds": [
              0,
              3
            ],
            "bo": "SINGLE"
          },
          {
            "atomIds": [
              3,
              4
            ],
            "bo": "DOUBLE"
          },
          {
            "atomIds": [
              1,
              4
            ],
            "bo": "SINGLE"
          },
          {
            "atomIds": [
              1,
              5
            ],
            "bo": "DOUBLE"
          },
          {
            "atomIds": [
              2,
              5
            ],
            "bo": "SINGLE"
          },
          {
            "atomIds": [
              0,
              2
            ],
            "bo": "DOUBLE"
          },
          {
            "atomIds": [
              4,
              8
            ],
            "bo": "SINGLE"
          },
          {
            "atomIds": [
              5,
              9
            ],
            "bo": "SINGLE"
          },
          {
            "atomIds": [
              1,
              10
            ],
            "bo": "SINGLE"
          },
          {
            "atomIds": [
              2,
              6
            ],
            "bo": "SINGLE"
          },
          {
            "atomIds": [
              3,
              7
            ],
            "bo": "SINGLE"
          }
        ]
      },
      "vertexId": 109141,
      "buildingBlockId": 35,
      "buildingBlockType": "FRAGMENT",
      "isRCV": false,
      "properties": {
        "ATTACHMENT_POINTS": "1#SubArS:1:SINGLE:0.2973%0.3873%-0.6389 "
      },
      "uniquefyingPropertyKeys": [],
      "allowedMutationTypes": [
        "DELETE",
        "EXTEND",
        "CHANGEBRANCH",
        "CHANGELINK",
        "ADDLINK",
        "DELETELINK",
        "DELETECHAIN"
      ],
      "vertexType": "MolecularFragment"
    },
    {
      "lstAPs": [
        {
          "id": 143980,
          "atomPositionNumber": 0,
          "atomPositionNumberInMol": 49,
          "apClass": {
            "rule": "LPyrrolidinylideneSubCGammaS",
            "subClass": 1,
            "bndTyp": "SINGLE"
          },
          "dirVec": {
            "x": 1.4399,
            "y": 1.6623,
            "z": 2.2907
          }
        }
      ],
      "lstSymAPs": [],
      "mol": {
        "atoms": [
          {
            "elSymbol": "C",
            "p3d": {
              "x": 2.8634,
              "y": 1.6303,
              "z": 1.7249
            }
          },
          {
            "elSymbol": "H",
            "p3d": {
              "x": 2.8236,
              "y": 1.7916,
              "z": 0.6345
            }
          },
          {
            "elSymbol": "H",
            "p3d": {
              "x": 3.4679,
              "y": 2.4143,
              "z": 2.1805
            }
          },
          {
            "elSymbol": "H",
            "p3d": {
              "x": 3.3186,
              "y": 0.6663,
              "z": 1.919
            }
          }
        ],
        "bonds": [
          {
            "atomIds": [
              1,
              0
            ],
            "bo": "SINGLE"
          },
          {
            "atomIds": [
              2,
              0
            ],
            "bo": "SINGLE"
          },
          {
            "atomIds": [
              3,
              0
            ],
            "bo": "SINGLE"
          }
        ]
      },
      "vertexId": 109156,
      "buildingBlockId": 22,
      "buildingBlockType": "FRAGMENT",
      "isRCV": false,
      "properties": {
        "ATTACHMENT_POINTS": "1#LPyrrolidinylideneSubCGammaS:1:SINGLE:1.4399%1.6623%2.2907 "
      },
      "uniquefyingPropertyKeys": [],
      "allowedMutationTypes": [
        "DELETE",
        "EXTEND",
        "CHANGEBRANCH",
        "CHANGELINK",
        "ADDLINK",
        "DELETELINK",
        "DELETECHAIN"
      ],
      "vertexType": "MolecularFragment"
    },
    {
      "lstAPs": [
        {
          "id": 143981,
          "atomPositionNumber": 0,
          "atomPositionNumberInMol": 53,
          "apClass": {
            "rule": "LPyrrolidinylideneSubCAlpha",
            "subClass": 1,
            "bndTyp": "SINGLE"
          },
          "dirVec": {
            "x": 10.5718,
            "y": 9.5818,
            "z": 19.5273
          }
        }
      ],
      "lstSymAPs": [],
      "mol": {
        "atoms": [
          {
            "elSymbol": "C",
            "p3d": {
              "x": 11.7977,
              "y": 8.6986,
              "z": 19.2649
            }
          },
          {
            "elSymbol": "H",
            "p3d": {
              "x": 11.6263,
              "y": 8.0849,
              "z": 18.3966
            }
          },
          {
            "elSymbol": "H",
            "p3d": {
              "x": 11.9867,
              "y": 8.0758,
              "z": 20.122
            }
          },
          {
            "elSymbol": "H",
            "p3d": {
              "x": 12.6717,
              "y": 9.3283,
              "z": 19.0876
            }
          }
        ],
        "bonds": [
          {
            "atomIds": [
              1,
              0
            ],
            "bo": "SINGLE"
          },
          {
            "atomIds": [
              2,
              0
            ],
            "bo": "SINGLE"
          },
          {
            "atomIds": [
              3,
              0
            ],
            "bo": "SINGLE"
          }
        ]
      },
      "vertexId": 109577,
      "buildingBlockId": 27,
      "buildingBlockType": "FRAGMENT",
      "isRCV": false,
      "properties": {
        "ATTACHMENT_POINTS": "1#LPyrrolidinylideneSubCAlpha:1:SINGLE:10.5718%9.5818%19.5273 "
      },
      "uniquefyingPropertyKeys": [],
      "allowedMutationTypes": [
        "DELETE",
        "EXTEND",
        "CHANGEBRANCH",
        "CHANGELINK",
        "ADDLINK",
        "DELETELINK",
        "DELETECHAIN"
      ],
      "vertexType": "MolecularFragment"
    }
  ],
  "gEdges": [
    {
      "srcAPID": 143918,
      "trgAPID": 143921,
      "bondType": "SINGLE"
    },
    {
      "srcAPID": 143920,
      "trgAPID": 143923,
      "bondType": "SINGLE"
    },
    {
      "srcAPID": 143919,
      "trgAPID": 143928,
      "bondType": "SINGLE"
    },
    {
      "srcAPID": 143924,
      "trgAPID": 143977,
      "bondType": "SINGLE"
    },
    {
      "srcAPID": 143926,
      "trgAPID": 143978,
      "bondType": "SINGLE"
    },
    {
      "srcAPID": 143922,
      "trgAPID": 143979,
      "bondType": "SINGLE"
    },
    {
      "srcAPID": 143925,
      "trgAPID": 143980,
      "bondType": "SINGLE"
    },
    {
      "srcAPID": 143927,
      "trgAPID": 143981,
      "bondType": "SINGLE"
    }
  ],
  "gRings": [],
  "symVertices": [
    {
      "symIds": [
        109161,
        109577
      ]
    }
  ]
}

> <SMILES>
[Pt](C#O)(OC([H])([H])[H])([C]1N(C(C(C1(C2([H])C([H])([H])C([H])([H])C([H])([H])C([H])([H])C2([H])[H])C([H])([H])[H])([H])[H])(C([H])([H])[H])C([H])([H])[H])C=3C(=C(C(=C(C3[H])[H])[H])[H])[H])Cl

$$$$
