M00000905
  CDK     04222208573D

 47 48  0  0  0  0  0  0  0  0999 V2000
   -2.4316    0.3020   -0.2142 Pt  0  0  0  0  0  0  0  0  0  0  0  0
   -4.3705    0.1225   -0.2783 C   0  0  0  0  0  0  0  0  0  0  0  0
   -5.5073    0.0288   -0.3173 O   0  0  0  0  0  0  0  0  0  0  0  0
   -2.9128    2.5583   -0.1780 S   0  0  0  0  0  0  0  0  0  0  0  0
   -2.8492    2.7687    1.6213 C   0  0  0  0  0  0  0  0  0  0  0  0
   -2.1469    3.5663    1.8827 H   0  0  0  0  0  0  0  0  0  0  0  0
   -2.5321    1.8358    2.1220 H   0  0  0  0  0  0  0  0  0  0  0  0
   -3.8398    3.0445    2.0015 H   0  0  0  0  0  0  0  0  0  0  0  0
   -0.1535    0.5580   -0.1560 P   0  0  0  0  0  0  0  0  0  0  0  0
    0.6524   -0.4449    1.1984 C   0  0  0  0  0  0  0  0  0  0  0  0
    1.4494   -1.3157    0.5634 C   0  0  0  0  0  0  0  0  0  0  0  0
    2.3401   -2.4131    1.0456 C   0  0  0  0  0  0  0  0  0  0  0  0
    1.7519   -3.1770    1.5939 H   0  0  0  0  0  0  0  0  0  0  0  0
    3.0980   -2.0395    1.7582 H   0  0  0  0  0  0  0  0  0  0  0  0
    2.9983   -3.0210   -0.2174 C   0  0  0  0  0  0  0  0  0  0  0  0
    2.8488   -4.1138   -0.2458 H   0  0  0  0  0  0  0  0  0  0  0  0
    4.0886   -2.8548   -0.2036 H   0  0  0  0  0  0  0  0  0  0  0  0
    2.3624   -2.3512   -1.4603 C   0  0  0  0  0  0  0  0  0  0  0  0
    3.1325   -1.9431   -2.1403 H   0  0  0  0  0  0  0  0  0  0  0  0
    1.7841   -3.0865   -2.0564 H   0  0  0  0  0  0  0  0  0  0  0  0
    1.4631   -1.2785   -0.9404 C   0  0  0  0  0  0  0  0  0  0  0  0
    0.6771   -0.3769   -1.5443 C   0  0  0  0  0  0  0  0  0  0  0  0
    0.9521    1.1401   -3.5146 C   0  0  0  0  0  0  0  0  0  0  0  0
    0.3366   -0.1609   -2.9806 C   0  0  0  0  0  0  0  0  0  0  0  0
   -1.1872   -0.1859   -3.1834 C   0  0  0  0  0  0  0  0  0  0  0  0
   -1.6413   -1.0774   -2.7173 H   0  0  0  0  0  0  0  0  0  0  0  0
   -1.4369   -0.2206   -4.2501 H   0  0  0  0  0  0  0  0  0  0  0  0
   -1.6988    0.6970   -2.7712 H   0  0  0  0  0  0  0  0  0  0  0  0
    0.8601    1.1922   -4.6061 H   0  0  0  0  0  0  0  0  0  0  0  0
    0.4567    2.0318   -3.1161 H   0  0  0  0  0  0  0  0  0  0  0  0
    2.0167    1.2109   -3.2687 H   0  0  0  0  0  0  0  0  0  0  0  0
    0.7734   -1.0148   -3.5679 H   0  0  0  0  0  0  0  0  0  0  0  0
   -1.2291   -0.4005    2.8290 C   0  0  0  0  0  0  0  0  0  0  0  0
    0.2933   -0.3081    2.6398 C   0  0  0  0  0  0  0  0  0  0  0  0
    0.8559    0.9864    3.2441 C   0  0  0  0  0  0  0  0  0  0  0  0
    1.9188    1.1081    3.0088 H   0  0  0  0  0  0  0  0  0  0  0  0
    0.7591    0.9772    4.3364 H   0  0  0  0  0  0  0  0  0  0  0  0
    0.3313    1.8791    2.8892 H   0  0  0  0  0  0  0  0  0  0  0  0
   -1.4842   -0.5277    3.8867 H   0  0  0  0  0  0  0  0  0  0  0  0
   -1.7702    0.4961    2.4754 H   0  0  0  0  0  0  0  0  0  0  0  0
   -1.6500   -1.2666    2.2891 H   0  0  0  0  0  0  0  0  0  0  0  0
    0.7576   -1.1725    3.1901 H   0  0  0  0  0  0  0  0  0  0  0  0
    0.4943    2.3058   -0.1065 C   0  0  0  0  0  0  0  0  0  0  0  0
    0.2895    2.7758    0.8675 H   0  0  0  0  0  0  0  0  0  0  0  0
    1.5765    2.3428   -0.2855 H   0  0  0  0  0  0  0  0  0  0  0  0
   -0.0030    2.9307   -0.8689 H   0  0  0  0  0  0  0  0  0  0  0  0
   -2.4743   -2.1081   -0.2539 Cl  0  0  0  0  0  0  0  0  0  0  0  0
  2  3  3  0  0  0  0
  1  2  1  0  0  0  0
  5  6  1  0  0  0  0
  5  7  1  0  0  0  0
  5  8  1  0  0  0  0
  4  5  1  0  0  0  0
  1  4  1  0  0  0  0
 10  9  1  0  0  0  0
 11 10  2  0  0  0  0
 12 11  1  0  0  0  0
 13 12  1  0  0  0  0
 14 12  1  0  0  0  0
 15 12  1  0  0  0  0
 16 15  1  0  0  0  0
 17 15  1  0  0  0  0
 18 15  1  0  0  0  0
 18 21  1  0  0  0  0
 19 18  1  0  0  0  0
 20 18  1  0  0  0  0
 21 11  1  0  0  0  0
 21 22  2  0  0  0  0
 22  9  1  0  0  0  0
  1  9  1  0  0  0  0
 23 24  1  0  0  0  0
 24 25  1  0  0  0  0
 25 26  1  0  0  0  0
 25 27  1  0  0  0  0
 25 28  1  0  0  0  0
 23 29  1  0  0  0  0
 23 30  1  0  0  0  0
 23 31  1  0  0  0  0
 24 32  1  0  0  0  0
 22 24  1  0  0  0  0
 33 34  1  0  0  0  0
 34 35  1  0  0  0  0
 35 36  1  0  0  0  0
 35 37  1  0  0  0  0
 35 38  1  0  0  0  0
 33 39  1  0  0  0  0
 33 40  1  0  0  0  0
 33 41  1  0  0  0  0
 34 42  1  0  0  0  0
 10 34  1  0  0  0  0
 43 44  1  0  0  0  0
 43 45  1  0  0  0  0
 43 46  1  0  0  0  0
  9 43  1  0  0  0  0
  1 47  1  0  0  0  0
M  END
> <PM6_ENERGY>
-324.804

> <UID>
GWKCBTBNCWQMQI-QQFACNFBNA-L

> <FITNESS>
1.14132

> <GCODE>
1506

> <GraphENC>
1506 72_1_0,79_64_1,114_54_1,88_67_1,25388_33_1,25348_33_1,25338_31_1, 72_0_79_0_SINGLE_Xlig:0_Xlig:1,72_2_114_1_SINGLE_scaff:0_MPhosphole:1,72_1_88_0_SINGLE_Xlig:0_Xlig:1,114_3_25388_0_SINGLE_LPhospholeSubAlpha:0_SubRM:1,114_2_25348_0_SINGLE_LPhospholeSubAlpha:0_SubRM:1,114_0_25338_0_SINGLE_LPhospholeSubR:0_SubRS:1, SymmetricSet [symIds=[25388, 25348]] 

> <GraphJson>
{
  "graphId": 1506,
  "gVertices": [
    {
      "lstAPs": [
        {
          "id": 34785,
          "atomPositionNumber": 0,
          "atomPositionNumberInMol": 0,
          "apClass": {
            "rule": "Xlig",
            "subClass": 0,
            "bndTyp": "SINGLE"
          },
          "dirVec": {
            "x": -2.3339,
            "y": -0.0087,
            "z": 0.8172
          }
        },
        {
          "id": 34786,
          "atomPositionNumber": 0,
          "atomPositionNumberInMol": 0,
          "apClass": {
            "rule": "Xlig",
            "subClass": 0,
            "bndTyp": "SINGLE"
          },
          "dirVec": {
            "x": 2.336,
            "y": -5.0E-4,
            "z": 0.829
          }
        },
        {
          "id": 34787,
          "atomPositionNumber": 0,
          "atomPositionNumberInMol": 0,
          "apClass": {
            "rule": "scaff",
            "subClass": 0,
            "bndTyp": "SINGLE"
          },
          "dirVec": {
            "x": -0.0095,
            "y": 0.0046,
            "z": -1.7113
          }
        }
      ],
      "lstSymAPs": [
        {
          "symIds": [
            0,
            1
          ]
        }
      ],
      "mol": {
        "atoms": [
          {
            "elSymbol": "Pt",
            "p3d": {
              "x": -0.0098,
              "y": 0.0049,
              "z": 0.6289
            }
          },
          {
            "elSymbol": "C",
            "p3d": {
              "x": -6.0E-4,
              "y": 0.0016,
              "z": 2.5609
            }
          },
          {
            "elSymbol": "O",
            "p3d": {
              "x": 0.0025,
              "y": -0.0041,
              "z": 3.6974
            }
          },
          {
            "elSymbol": "Du",
            "p3d": {
              "x": -0.007,
              "y": 1.0013,
              "z": 0.6372
            }
          },
          {
            "elSymbol": "Du",
            "p3d": {
              "x": -0.0014,
              "y": 0.9902,
              "z": 2.5698
            }
          }
        ],
        "bonds": [
          {
            "atomIds": [
              1,
              2
            ],
            "bo": "TRIPLE"
          },
          {
            "atomIds": [
              0,
              1
            ],
            "bo": "SINGLE"
          },
          {
            "atomIds": [
              3,
              0
            ],
            "bo": "SINGLE"
          },
          {
            "atomIds": [
              4,
              1
            ],
            "bo": "SINGLE"
          }
        ]
      },
      "vertexId": 72,
      "buildingBlockId": 0,
      "buildingBlockType": "SCAFFOLD",
      "isRCV": false,
      "properties": {
        "ATTACHMENT_POINTS": "1#Xlig:0:SINGLE:-2.3339%-0.0087%0.8172,Xlig:0:SINGLE:2.3360%-0.0005%0.8290,scaff:0:SINGLE:-0.0095%0.0046%-1.7113 "
      },
      "uniquefyingPropertyKeys": [],
      "allowedMutationTypes": [
        "DELETE",
        "EXTEND",
        "CHANGEBRANCH",
        "CHANGELINK",
        "ADDLINK",
        "DELETELINK",
        "DELETECHAIN"
      ],
      "vertexType": "MolecularFragment"
    },
    {
      "lstAPs": [
        {
          "id": 34788,
          "atomPositionNumber": 0,
          "atomPositionNumberInMol": 5,
          "apClass": {
            "rule": "Xlig",
            "subClass": 1,
            "bndTyp": "SINGLE"
          },
          "dirVec": {
            "x": -0.102,
            "y": 0.0185,
            "z": -1.0265
          }
        }
      ],
      "lstSymAPs": [],
      "mol": {
        "atoms": [
          {
            "elSymbol": "S",
            "p3d": {
              "x": -0.3267,
              "y": 2.3403,
              "z": -1.0022
            }
          },
          {
            "elSymbol": "C",
            "p3d": {
              "x": -0.626,
              "y": 2.4866,
              "z": 0.7805
            }
          },
          {
            "elSymbol": "H",
            "p3d": {
              "x": 0.1766,
              "y": 3.089,
              "z": 1.2414
            }
          },
          {
            "elSymbol": "H",
            "p3d": {
              "x": -0.651,
              "y": 1.5065,
              "z": 1.2643
            }
          },
          {
            "elSymbol": "H",
            "p3d": {
              "x": -1.5658,
              "y": 2.981,
              "z": 0.9515
            }
          }
        ],
        "bonds": [
          {
            "atomIds": [
              1,
              2
            ],
            "bo": "SINGLE"
          },
          {
            "atomIds": [
              1,
              3
            ],
            "bo": "SINGLE"
          },
          {
            "atomIds": [
              1,
              4
            ],
            "bo": "SINGLE"
          },
          {
            "atomIds": [
              0,
              1
            ],
            "bo": "SINGLE"
          }
        ]
      },
      "vertexId": 79,
      "buildingBlockId": 63,
      "buildingBlockType": "FRAGMENT",
      "isRCV": false,
      "properties": {
        "ATTACHMENT_POINTS": "1#Xlig:1:SINGLE:-0.1020%0.0185%-1.0265 "
      },
      "uniquefyingPropertyKeys": [],
      "allowedMutationTypes": [
        "DELETE",
        "EXTEND",
        "CHANGEBRANCH",
        "CHANGELINK",
        "ADDLINK",
        "DELETELINK",
        "DELETECHAIN"
      ],
      "vertexType": "MolecularFragment"
    },
    {
      "lstAPs": [
        {
          "id": 34789,
          "atomPositionNumber": 0,
          "atomPositionNumberInMol": 10,
          "apClass": {
            "rule": "LPhospholeSubR",
            "subClass": 0,
            "bndTyp": "SINGLE"
          },
          "dirVec": {
            "x": 2.845,
            "y": 3.6959,
            "z": 7.5989
          }
        },
        {
          "id": 34790,
          "atomPositionNumber": 0,
          "atomPositionNumberInMol": 10,
          "apClass": {
            "rule": "MPhosphole",
            "subClass": 1,
            "bndTyp": "SINGLE"
          },
          "dirVec": {
            "x": 5.4116,
            "y": 3.8914,
            "z": 5.1007
          }
        },
        {
          "id": 34791,
          "atomPositionNumber": 1,
          "atomPositionNumberInMol": 11,
          "apClass": {
            "rule": "LPhospholeSubAlpha",
            "subClass": 0,
            "bndTyp": "SINGLE"
          },
          "dirVec": {
            "x": 1.4479,
            "y": 4.7532,
            "z": 4.2328
          }
        },
        {
          "id": 34792,
          "atomPositionNumber": 13,
          "atomPositionNumberInMol": 23,
          "apClass": {
            "rule": "LPhospholeSubAlpha",
            "subClass": 0,
            "bndTyp": "SINGLE"
          },
          "dirVec": {
            "x": 3.9785,
            "y": 0.2873,
            "z": 6.6145
          }
        }
      ],
      "lstSymAPs": [
        {
          "symIds": [
            2,
            3
          ]
        }
      ],
      "mol": {
        "atoms": [
          {
            "elSymbol": "P",
            "p3d": {
              "x": 3.3327,
              "y": 3.1661,
              "z": 5.9169
            }
          },
          {
            "elSymbol": "C",
            "p3d": {
              "x": 1.8776,
              "y": 3.4521,
              "z": 4.8835
            }
          },
          {
            "elSymbol": "C",
            "p3d": {
              "x": 1.2681,
              "y": 2.2569,
              "z": 4.7213
            }
          },
          {
            "elSymbol": "C",
            "p3d": {
              "x": 0.0419,
              "y": 1.8038,
              "z": 3.9627
            }
          },
          {
            "elSymbol": "H",
            "p3d": {
              "x": 0.2288,
              "y": 1.7787,
              "z": 2.8891
            }
          },
          {
            "elSymbol": "H",
            "p3d": {
              "x": -0.8031,
              "y": 2.4636,
              "z": 4.164
            }
          },
          {
            "elSymbol": "C",
            "p3d": {
              "x": -0.2053,
              "y": 0.3988,
              "z": 4.5209
            }
          },
          {
            "elSymbol": "H",
            "p3d": {
              "x": -0.5881,
              "y": -0.2518,
              "z": 3.7305
            }
          },
          {
            "elSymbol": "H",
            "p3d": {
              "x": -0.9454,
              "y": 0.4356,
              "z": 5.3348
            }
          },
          {
            "elSymbol": "C",
            "p3d": {
              "x": 1.1426,
              "y": -0.1318,
              "z": 5.057
            }
          },
          {
            "elSymbol": "H",
            "p3d": {
              "x": 0.9989,
              "y": -0.7298,
              "z": 5.9471
            }
          },
          {
            "elSymbol": "H",
            "p3d": {
              "x": 1.6318,
              "y": -0.7488,
              "z": 4.3049
            }
          },
          {
            "elSymbol": "C",
            "p3d": {
              "x": 1.9182,
              "y": 1.1071,
              "z": 5.3354
            }
          },
          {
            "elSymbol": "C",
            "p3d": {
              "x": 3.0763,
              "y": 1.3393,
              "z": 5.9864
            }
          }
        ],
        "bonds": [
          {
            "atomIds": [
              1,
              0
            ],
            "bo": "SINGLE"
          },
          {
            "atomIds": [
              2,
              1
            ],
            "bo": "DOUBLE"
          },
          {
            "atomIds": [
              3,
              2
            ],
            "bo": "SINGLE"
          },
          {
            "atomIds": [
              4,
              3
            ],
            "bo": "SINGLE"
          },
          {
            "atomIds": [
              5,
              3
            ],
            "bo": "SINGLE"
          },
          {
            "atomIds": [
              6,
              3
            ],
            "bo": "SINGLE"
          },
          {
            "atomIds": [
              7,
              6
            ],
            "bo": "SINGLE"
          },
          {
            "atomIds": [
              8,
              6
            ],
            "bo": "SINGLE"
          },
          {
            "atomIds": [
              9,
              6
            ],
            "bo": "SINGLE"
          },
          {
            "atomIds": [
              9,
              12
            ],
            "bo": "SINGLE"
          },
          {
            "atomIds": [
              10,
              9
            ],
            "bo": "SINGLE"
          },
          {
            "atomIds": [
              11,
              9
            ],
            "bo": "SINGLE"
          },
          {
            "atomIds": [
              12,
              2
            ],
            "bo": "SINGLE"
          },
          {
            "atomIds": [
              12,
              13
            ],
            "bo": "DOUBLE"
          },
          {
            "atomIds": [
              13,
              0
            ],
            "bo": "SINGLE"
          }
        ]
      },
      "vertexId": 114,
      "buildingBlockId": 53,
      "buildingBlockType": "FRAGMENT",
      "isRCV": false,
      "properties": {
        "ATTACHMENT_POINTS": "1#LPhospholeSubR:0:SINGLE:2.8450%3.6959%7.5989,MPhosphole:1:SINGLE:5.4116%3.8914%5.1007 2#LPhospholeSubAlpha:0:SINGLE:1.4479%4.7532%4.2328 14#LPhospholeSubAlpha:0:SINGLE:3.9785%0.2873%6.6145 "
      },
      "uniquefyingPropertyKeys": [],
      "allowedMutationTypes": [
        "DELETE",
        "EXTEND",
        "CHANGEBRANCH",
        "CHANGELINK",
        "ADDLINK",
        "DELETELINK",
        "DELETECHAIN"
      ],
      "vertexType": "MolecularFragment"
    },
    {
      "lstAPs": [
        {
          "id": 34793,
          "atomPositionNumber": 0,
          "atomPositionNumberInMol": 48,
          "apClass": {
            "rule": "Xlig",
            "subClass": 1,
            "bndTyp": "SINGLE"
          },
          "dirVec": {
            "x": -0.0053,
            "y": -0.0027,
            "z": 0.63
          }
        }
      ],
      "lstSymAPs": [],
      "mol": {
        "atoms": [
          {
            "elSymbol": "Cl",
            "p3d": {
              "x": 2.3243,
              "y": -0.0063,
              "z": 0.8189
            }
          }
        ],
        "bonds": []
      },
      "vertexId": 88,
      "buildingBlockId": 66,
      "buildingBlockType": "FRAGMENT",
      "isRCV": false,
      "properties": {
        "ATTACHMENT_POINTS": "1#Xlig:1:SINGLE:-0.0053%-0.0027%0.6300 "
      },
      "uniquefyingPropertyKeys": [],
      "allowedMutationTypes": [
        "DELETE",
        "EXTEND",
        "CHANGEBRANCH",
        "CHANGELINK",
        "ADDLINK",
        "DELETELINK",
        "DELETECHAIN"
      ],
      "vertexType": "MolecularFragment"
    },
    {
      "lstAPs": [
        {
          "id": 34830,
          "atomPositionNumber": 1,
          "atomPositionNumberInMol": 25,
          "apClass": {
            "rule": "SubRM",
            "subClass": 1,
            "bndTyp": "SINGLE"
          },
          "dirVec": {
            "x": 0.2868,
            "y": 0.385,
            "z": -0.643
          }
        }
      ],
      "lstSymAPs": [],
      "mol": {
        "atoms": [
          {
            "elSymbol": "C",
            "p3d": {
              "x": 1.141,
              "y": 1.0262,
              "z": 1.6347
            }
          },
          {
            "elSymbol": "C",
            "p3d": {
              "x": 0.3967,
              "y": -0.0479,
              "z": 0.8227
            }
          },
          {
            "elSymbol": "C",
            "p3d": {
              "x": 1.1459,
              "y": -1.371,
              "z": 0.9201
            }
          },
          {
            "elSymbol": "H",
            "p3d": {
              "x": 2.1461,
              "y": -1.2583,
              "z": 0.4976
            }
          },
          {
            "elSymbol": "H",
            "p3d": {
              "x": 0.6013,
              "y": -2.1408,
              "z": 0.3461
            }
          },
          {
            "elSymbol": "H",
            "p3d": {
              "x": 1.2113,
              "y": -1.6946,
              "z": 1.9559
            }
          },
          {
            "elSymbol": "H",
            "p3d": {
              "x": 2.1541,
              "y": 1.1435,
              "z": 1.2119
            }
          },
          {
            "elSymbol": "H",
            "p3d": {
              "x": 0.6143,
              "y": 1.976,
              "z": 1.5626
            }
          },
          {
            "elSymbol": "H",
            "p3d": {
              "x": 1.2058,
              "y": 0.7088,
              "z": 2.6868
            }
          },
          {
            "elSymbol": "H",
            "p3d": {
              "x": -0.6215,
              "y": -0.1789,
              "z": 1.2377
            }
          }
        ],
        "bonds": [
          {
            "atomIds": [
              0,
              1
            ],
            "bo": "SINGLE"
          },
          {
            "atomIds": [
              1,
              2
            ],
            "bo": "SINGLE"
          },
          {
            "atomIds": [
              2,
              3
            ],
            "bo": "SINGLE"
          },
          {
            "atomIds": [
              2,
              4
            ],
            "bo": "SINGLE"
          },
          {
            "atomIds": [
              2,
              5
            ],
            "bo": "SINGLE"
          },
          {
            "atomIds": [
              0,
              6
            ],
            "bo": "SINGLE"
          },
          {
            "atomIds": [
              0,
              7
            ],
            "bo": "SINGLE"
          },
          {
            "atomIds": [
              0,
              8
            ],
            "bo": "SINGLE"
          },
          {
            "atomIds": [
              1,
              9
            ],
            "bo": "SINGLE"
          }
        ]
      },
      "vertexId": 25388,
      "buildingBlockId": 32,
      "buildingBlockType": "FRAGMENT",
      "isRCV": false,
      "properties": {
        "ATTACHMENT_POINTS": "2#SubRM:1:SINGLE:0.2868%0.3850%-0.6430 "
      },
      "uniquefyingPropertyKeys": [],
      "allowedMutationTypes": [
        "DELETE",
        "EXTEND",
        "CHANGEBRANCH",
        "CHANGELINK",
        "ADDLINK",
        "DELETELINK",
        "DELETECHAIN"
      ],
      "vertexType": "MolecularFragment"
    },
    {
      "lstAPs": [
        {
          "id": 34831,
          "atomPositionNumber": 1,
          "atomPositionNumberInMol": 35,
          "apClass": {
            "rule": "SubRM",
            "subClass": 1,
            "bndTyp": "SINGLE"
          },
          "dirVec": {
            "x": 0.2868,
            "y": 0.385,
            "z": -0.643
          }
        }
      ],
      "lstSymAPs": [],
      "mol": {
        "atoms": [
          {
            "elSymbol": "C",
            "p3d": {
              "x": 1.141,
              "y": 1.0262,
              "z": 1.6347
            }
          },
          {
            "elSymbol": "C",
            "p3d": {
              "x": 0.3967,
              "y": -0.0479,
              "z": 0.8227
            }
          },
          {
            "elSymbol": "C",
            "p3d": {
              "x": 1.1459,
              "y": -1.371,
              "z": 0.9201
            }
          },
          {
            "elSymbol": "H",
            "p3d": {
              "x": 2.1461,
              "y": -1.2583,
              "z": 0.4976
            }
          },
          {
            "elSymbol": "H",
            "p3d": {
              "x": 0.6013,
              "y": -2.1408,
              "z": 0.3461
            }
          },
          {
            "elSymbol": "H",
            "p3d": {
              "x": 1.2113,
              "y": -1.6946,
              "z": 1.9559
            }
          },
          {
            "elSymbol": "H",
            "p3d": {
              "x": 2.1541,
              "y": 1.1435,
              "z": 1.2119
            }
          },
          {
            "elSymbol": "H",
            "p3d": {
              "x": 0.6143,
              "y": 1.976,
              "z": 1.5626
            }
          },
          {
            "elSymbol": "H",
            "p3d": {
              "x": 1.2058,
              "y": 0.7088,
              "z": 2.6868
            }
          },
          {
            "elSymbol": "H",
            "p3d": {
              "x": -0.6215,
              "y": -0.1789,
              "z": 1.2377
            }
          }
        ],
        "bonds": [
          {
            "atomIds": [
              0,
              1
            ],
            "bo": "SINGLE"
          },
          {
            "atomIds": [
              1,
              2
            ],
            "bo": "SINGLE"
          },
          {
            "atomIds": [
              2,
              3
            ],
            "bo": "SINGLE"
          },
          {
            "atomIds": [
              2,
              4
            ],
            "bo": "SINGLE"
          },
          {
            "atomIds": [
              2,
              5
            ],
            "bo": "SINGLE"
          },
          {
            "atomIds": [
              0,
              6
            ],
            "bo": "SINGLE"
          },
          {
            "atomIds": [
              0,
              7
            ],
            "bo": "SINGLE"
          },
          {
            "atomIds": [
              0,
              8
            ],
            "bo": "SINGLE"
          },
          {
            "atomIds": [
              1,
              9
            ],
            "bo": "SINGLE"
          }
        ]
      },
      "vertexId": 25348,
      "buildingBlockId": 32,
      "buildingBlockType": "FRAGMENT",
      "isRCV": false,
      "properties": {
        "ATTACHMENT_POINTS": "2#SubRM:1:SINGLE:0.2868%0.3850%-0.6430 "
      },
      "uniquefyingPropertyKeys": [],
      "allowedMutationTypes": [
        "DELETE",
        "EXTEND",
        "CHANGEBRANCH",
        "CHANGELINK",
        "ADDLINK",
        "DELETELINK",
        "DELETECHAIN"
      ],
      "vertexType": "MolecularFragment"
    },
    {
      "lstAPs": [
        {
          "id": 34832,
          "atomPositionNumber": 0,
          "atomPositionNumberInMol": 44,
          "apClass": {
            "rule": "SubRS",
            "subClass": 1,
            "bndTyp": "SINGLE"
          },
          "dirVec": {
            "x": 0.2865,
            "y": 0.3959,
            "z": -0.6387
          }
        }
      ],
      "lstSymAPs": [],
      "mol": {
        "atoms": [
          {
            "elSymbol": "C",
            "p3d": {
              "x": 0.3969,
              "y": -0.0496,
              "z": 0.8235
            }
          },
          {
            "elSymbol": "H",
            "p3d": {
              "x": -0.6146,
              "y": -0.163,
              "z": 1.2402
            }
          },
          {
            "elSymbol": "H",
            "p3d": {
              "x": 0.9335,
              "y": -0.9979,
              "z": 0.8998
            }
          },
          {
            "elSymbol": "H",
            "p3d": {
              "x": 0.9252,
              "y": 0.7237,
              "z": 1.3995
            }
          }
        ],
        "bonds": [
          {
            "atomIds": [
              0,
              1
            ],
            "bo": "SINGLE"
          },
          {
            "atomIds": [
              0,
              2
            ],
            "bo": "SINGLE"
          },
          {
            "atomIds": [
              0,
              3
            ],
            "bo": "SINGLE"
          }
        ]
      },
      "vertexId": 25338,
      "buildingBlockId": 30,
      "buildingBlockType": "FRAGMENT",
      "isRCV": false,
      "properties": {
        "ATTACHMENT_POINTS": "1#SubRS:1:SINGLE:0.2865%0.3959%-0.6387 "
      },
      "uniquefyingPropertyKeys": [],
      "allowedMutationTypes": [
        "DELETE",
        "EXTEND",
        "CHANGEBRANCH",
        "CHANGELINK",
        "ADDLINK",
        "DELETELINK",
        "DELETECHAIN"
      ],
      "vertexType": "MolecularFragment"
    }
  ],
  "gEdges": [
    {
      "srcAPID": 34785,
      "trgAPID": 34788,
      "bondType": "SINGLE"
    },
    {
      "srcAPID": 34787,
      "trgAPID": 34790,
      "bondType": "SINGLE"
    },
    {
      "srcAPID": 34786,
      "trgAPID": 34793,
      "bondType": "SINGLE"
    },
    {
      "srcAPID": 34792,
      "trgAPID": 34830,
      "bondType": "SINGLE"
    },
    {
      "srcAPID": 34791,
      "trgAPID": 34831,
      "bondType": "SINGLE"
    },
    {
      "srcAPID": 34789,
      "trgAPID": 34832,
      "bondType": "SINGLE"
    }
  ],
  "gRings": [],
  "symVertices": [
    {
      "symIds": [
        25388,
        25348
      ]
    }
  ]
}

> <SMILES>
[Pt](C#O)(SC([H])([H])[H])([P]1(C(=C2C([H])([H])C([H])([H])C(C2=C1C(C([H])([H])[H])(C([H])([H])[H])[H])([H])[H])C(C([H])([H])[H])(C([H])([H])[H])[H])C([H])([H])[H])Cl

$$$$
