M00002354
  CDK     04222209323D

 35 35  0  0  0  0  0  0  0  0999 V2000
   -2.0041    0.0217   -0.0918 Pt  0  0  0  0  0  0  0  0  0  0  0  0
   -3.9411   -0.1737   -0.3191 C   0  0  0  0  0  0  0  0  0  0  0  0
   -5.0606   -0.2733   -0.5159 O   0  0  0  0  0  0  0  0  0  0  0  0
   -2.0417   -0.3002    1.9561 O   0  0  0  0  0  0  0  0  0  0  0  0
   -1.9816    0.9118    2.6672 C   0  0  0  0  0  0  0  0  0  0  0  0
   -2.5047    0.7384    3.6182 H   0  0  0  0  0  0  0  0  0  0  0  0
   -2.4772    1.7128    2.1034 H   0  0  0  0  0  0  0  0  0  0  0  0
   -0.9285    1.1680    2.8597 H   0  0  0  0  0  0  0  0  0  0  0  0
    0.2316    0.1937   -0.0293 P   0  0  0  0  0  0  0  0  0  0  0  0
    0.8671    1.0855    1.2610 O   0  0  0  0  0  0  0  0  0  0  0  0
    0.9798    1.0842   -1.2552 O   0  0  0  0  0  0  0  0  0  0  0  0
    2.0410    1.8116    0.8174 C   0  0  0  0  0  0  0  0  0  0  0  0
    2.9060    1.3603    1.3406 H   0  0  0  0  0  0  0  0  0  0  0  0
    1.8779    2.8394    1.2008 H   0  0  0  0  0  0  0  0  0  0  0  0
    2.1507    1.7441   -0.7134 C   0  0  0  0  0  0  0  0  0  0  0  0
    2.1337    2.7406   -1.1996 H   0  0  0  0  0  0  0  0  0  0  0  0
    3.0374    1.1835   -1.0673 H   0  0  0  0  0  0  0  0  0  0  0  0
    0.9465   -1.5766    0.0147 C   0  0  0  0  0  0  0  0  0  0  0  0
    2.2001   -1.6350    0.8796 C   0  0  0  0  0  0  0  0  0  0  0  0
   -0.2061   -2.3796    0.6197 C   0  0  0  0  0  0  0  0  0  0  0  0
    1.2297   -1.9858   -1.4272 C   0  0  0  0  0  0  0  0  0  0  0  0
    2.0344   -1.2586    1.9002 H   0  0  0  0  0  0  0  0  0  0  0  0
    2.0039   -1.3772   -1.9118 H   0  0  0  0  0  0  0  0  0  0  0  0
   -0.5536   -2.0021    1.6043 H   0  0  0  0  0  0  0  0  0  0  0  0
    0.0955   -3.4223    0.7936 H   0  0  0  0  0  0  0  0  0  0  0  0
    1.5814   -3.0275   -1.4648 H   0  0  0  0  0  0  0  0  0  0  0  0
    0.3369   -1.9519   -2.0742 H   0  0  0  0  0  0  0  0  0  0  0  0
    2.5277   -2.6800    0.9964 H   0  0  0  0  0  0  0  0  0  0  0  0
    3.0503   -1.0965    0.4469 H   0  0  0  0  0  0  0  0  0  0  0  0
   -1.0974   -2.4305   -0.0342 H   0  0  0  0  0  0  0  0  0  0  0  0
   -2.2791    0.1784   -2.3831 S   0  0  0  0  0  0  0  0  0  0  0  0
   -1.8536    1.9269   -2.6053 C   0  0  0  0  0  0  0  0  0  0  0  0
   -0.7698    2.0415   -2.7341 H   0  0  0  0  0  0  0  0  0  0  0  0
   -2.1781    2.5257   -1.7486 H   0  0  0  0  0  0  0  0  0  0  0  0
   -2.3542    2.3027   -3.5050 H   0  0  0  0  0  0  0  0  0  0  0  0
  2  3  3  0  0  0  0
  1  2  1  0  0  0  0
  5  6  1  0  0  0  0
  5  7  1  0  0  0  0
  5  8  1  0  0  0  0
  4  5  1  0  0  0  0
  1  4  1  0  0  0  0
 10  9  1  0  0  0  0
 11  9  1  0  0  0  0
 12 10  1  0  0  0  0
 12 15  1  0  0  0  0
 13 12  1  0  0  0  0
 14 12  1  0  0  0  0
 15 11  1  0  0  0  0
 16 15  1  0  0  0  0
 17 15  1  0  0  0  0
  1  9  1  0  0  0  0
 18 19  1  0  0  0  0
 18 20  1  0  0  0  0
 18 21  1  0  0  0  0
 19 22  1  0  0  0  0
 21 23  1  0  0  0  0
 20 24  1  0  0  0  0
 20 25  1  0  0  0  0
 21 26  1  0  0  0  0
 21 27  1  0  0  0  0
 19 28  1  0  0  0  0
 19 29  1  0  0  0  0
 20 30  1  0  0  0  0
  9 18  1  0  0  0  0
 32 33  1  0  0  0  0
 32 34  1  0  0  0  0
 32 35  1  0  0  0  0
 31 32  1  0  0  0  0
  1 31  1  0  0  0  0
M  END
> <PM6_ENERGY>
-761.009

> <UID>
VIRWLEIZLIVWGI-OGDIKOCYNA-M

> <FITNESS>
1.14102

> <GCODE>
3007

> <GraphENC>
3007 72_1_0,80_65_1,118_58_1,85_64_1,56955_34_1, 72_0_80_0_SINGLE_Xlig:0_Xlig:1,72_2_118_1_SINGLE_scaff:0_MPhosphonite:1,72_1_85_0_SINGLE_Xlig:0_Xlig:1,118_0_56955_0_SINGLE_LPhosphoniteSubR:0_SubRL:1, 

> <GraphJson>
{
  "graphId": 3007,
  "gVertices": [
    {
      "lstAPs": [
        {
          "id": 75690,
          "atomPositionNumber": 0,
          "atomPositionNumberInMol": 0,
          "apClass": {
            "rule": "Xlig",
            "subClass": 0,
            "bndTyp": "SINGLE"
          },
          "dirVec": {
            "x": -2.3339,
            "y": -0.0087,
            "z": 0.8172
          }
        },
        {
          "id": 75691,
          "atomPositionNumber": 0,
          "atomPositionNumberInMol": 0,
          "apClass": {
            "rule": "Xlig",
            "subClass": 0,
            "bndTyp": "SINGLE"
          },
          "dirVec": {
            "x": 2.336,
            "y": -5.0E-4,
            "z": 0.829
          }
        },
        {
          "id": 75692,
          "atomPositionNumber": 0,
          "atomPositionNumberInMol": 0,
          "apClass": {
            "rule": "scaff",
            "subClass": 0,
            "bndTyp": "SINGLE"
          },
          "dirVec": {
            "x": -0.0095,
            "y": 0.0046,
            "z": -1.7113
          }
        }
      ],
      "lstSymAPs": [
        {
          "symIds": [
            0,
            1
          ]
        }
      ],
      "mol": {
        "atoms": [
          {
            "elSymbol": "Pt",
            "p3d": {
              "x": -0.0098,
              "y": 0.0049,
              "z": 0.6289
            }
          },
          {
            "elSymbol": "C",
            "p3d": {
              "x": -6.0E-4,
              "y": 0.0016,
              "z": 2.5609
            }
          },
          {
            "elSymbol": "O",
            "p3d": {
              "x": 0.0025,
              "y": -0.0041,
              "z": 3.6974
            }
          },
          {
            "elSymbol": "Du",
            "p3d": {
              "x": -0.007,
              "y": 1.0013,
              "z": 0.6372
            }
          },
          {
            "elSymbol": "Du",
            "p3d": {
              "x": -0.0014,
              "y": 0.9902,
              "z": 2.5698
            }
          }
        ],
        "bonds": [
          {
            "atomIds": [
              1,
              2
            ],
            "bo": "TRIPLE"
          },
          {
            "atomIds": [
              0,
              1
            ],
            "bo": "SINGLE"
          },
          {
            "atomIds": [
              3,
              0
            ],
            "bo": "SINGLE"
          },
          {
            "atomIds": [
              4,
              1
            ],
            "bo": "SINGLE"
          }
        ]
      },
      "vertexId": 72,
      "buildingBlockId": 0,
      "buildingBlockType": "SCAFFOLD",
      "isRCV": false,
      "properties": {
        "ATTACHMENT_POINTS": "1#Xlig:0:SINGLE:-2.3339%-0.0087%0.8172,Xlig:0:SINGLE:2.3360%-0.0005%0.8290,scaff:0:SINGLE:-0.0095%0.0046%-1.7113 "
      },
      "uniquefyingPropertyKeys": [],
      "allowedMutationTypes": [
        "DELETE",
        "EXTEND",
        "CHANGEBRANCH",
        "CHANGELINK",
        "ADDLINK",
        "DELETELINK",
        "DELETECHAIN"
      ],
      "vertexType": "MolecularFragment"
    },
    {
      "lstAPs": [
        {
          "id": 75693,
          "atomPositionNumber": 0,
          "atomPositionNumberInMol": 5,
          "apClass": {
            "rule": "Xlig",
            "subClass": 1,
            "bndTyp": "SINGLE"
          },
          "dirVec": {
            "x": -0.1753,
            "y": 0.0948,
            "z": -0.4464
          }
        }
      ],
      "lstSymAPs": [],
      "mol": {
        "atoms": [
          {
            "elSymbol": "O",
            "p3d": {
              "x": -0.3534,
              "y": 2.1044,
              "z": -0.7339
            }
          },
          {
            "elSymbol": "C",
            "p3d": {
              "x": -0.5345,
              "y": 2.7646,
              "z": 0.4801
            }
          },
          {
            "elSymbol": "H",
            "p3d": {
              "x": -0.3728,
              "y": 3.8337,
              "z": 0.2724
            }
          },
          {
            "elSymbol": "H",
            "p3d": {
              "x": 0.1816,
              "y": 2.4161,
              "z": 1.2384
            }
          },
          {
            "elSymbol": "H",
            "p3d": {
              "x": -1.553,
              "y": 2.6149,
              "z": 0.8489
            }
          }
        ],
        "bonds": [
          {
            "atomIds": [
              1,
              2
            ],
            "bo": "SINGLE"
          },
          {
            "atomIds": [
              1,
              3
            ],
            "bo": "SINGLE"
          },
          {
            "atomIds": [
              1,
              4
            ],
            "bo": "SINGLE"
          },
          {
            "atomIds": [
              0,
              1
            ],
            "bo": "SINGLE"
          }
        ]
      },
      "vertexId": 80,
      "buildingBlockId": 64,
      "buildingBlockType": "FRAGMENT",
      "isRCV": false,
      "properties": {
        "ATTACHMENT_POINTS": "1#Xlig:1:SINGLE:-0.1753%0.0948%-0.4464 "
      },
      "uniquefyingPropertyKeys": [],
      "allowedMutationTypes": [
        "DELETE",
        "EXTEND",
        "CHANGEBRANCH",
        "CHANGELINK",
        "ADDLINK",
        "DELETELINK",
        "DELETECHAIN"
      ],
      "vertexType": "MolecularFragment"
    },
    {
      "lstAPs": [
        {
          "id": 75694,
          "atomPositionNumber": 0,
          "atomPositionNumberInMol": 10,
          "apClass": {
            "rule": "LPhosphoniteSubR",
            "subClass": 0,
            "bndTyp": "SINGLE"
          },
          "dirVec": {
            "x": 4.6565,
            "y": 2.2234,
            "z": 1.9268
          }
        },
        {
          "id": 75695,
          "atomPositionNumber": 0,
          "atomPositionNumberInMol": 10,
          "apClass": {
            "rule": "MPhosphonite",
            "subClass": 1,
            "bndTyp": "SINGLE"
          },
          "dirVec": {
            "x": 2.1365,
            "y": 0.094,
            "z": 0.9533
          }
        }
      ],
      "lstSymAPs": [],
      "mol": {
        "atoms": [
          {
            "elSymbol": "P",
            "p3d": {
              "x": 3.5562,
              "y": 0.863,
              "z": 2.4507
            }
          },
          {
            "elSymbol": "O",
            "p3d": {
              "x": 4.552,
              "y": -0.2283,
              "z": 3.0401
            }
          },
          {
            "elSymbol": "O",
            "p3d": {
              "x": 2.9564,
              "y": 1.3839,
              "z": 3.8353
            }
          },
          {
            "elSymbol": "C",
            "p3d": {
              "x": 4.8994,
              "y": 0.107,
              "z": 4.4321
            }
          },
          {
            "elSymbol": "H",
            "p3d": {
              "x": 5.9328,
              "y": 0.4241,
              "z": 4.4931
            }
          },
          {
            "elSymbol": "H",
            "p3d": {
              "x": 4.7479,
              "y": -0.7734,
              "z": 5.0714
            }
          },
          {
            "elSymbol": "C",
            "p3d": {
              "x": 3.9773,
              "y": 1.2052,
              "z": 4.8652
            }
          },
          {
            "elSymbol": "H",
            "p3d": {
              "x": 3.5192,
              "y": 0.9618,
              "z": 5.809
            }
          },
          {
            "elSymbol": "H",
            "p3d": {
              "x": 4.5435,
              "y": 2.1295,
              "z": 4.9863
            }
          }
        ],
        "bonds": [
          {
            "atomIds": [
              1,
              0
            ],
            "bo": "SINGLE"
          },
          {
            "atomIds": [
              2,
              0
            ],
            "bo": "SINGLE"
          },
          {
            "atomIds": [
              3,
              1
            ],
            "bo": "SINGLE"
          },
          {
            "atomIds": [
              3,
              6
            ],
            "bo": "SINGLE"
          },
          {
            "atomIds": [
              4,
              3
            ],
            "bo": "SINGLE"
          },
          {
            "atomIds": [
              5,
              3
            ],
            "bo": "SINGLE"
          },
          {
            "atomIds": [
              6,
              2
            ],
            "bo": "SINGLE"
          },
          {
            "atomIds": [
              7,
              6
            ],
            "bo": "SINGLE"
          },
          {
            "atomIds": [
              8,
              6
            ],
            "bo": "SINGLE"
          }
        ]
      },
      "vertexId": 118,
      "buildingBlockId": 57,
      "buildingBlockType": "FRAGMENT",
      "isRCV": false,
      "properties": {
        "ATTACHMENT_POINTS": "1#LPhosphoniteSubR:0:SINGLE:4.6565%2.2234%1.9268,MPhosphonite:1:SINGLE:2.1365%0.0940%0.9533 "
      },
      "uniquefyingPropertyKeys": [],
      "allowedMutationTypes": [
        "DELETE",
        "EXTEND",
        "CHANGEBRANCH",
        "CHANGELINK",
        "ADDLINK",
        "DELETELINK",
        "DELETECHAIN"
      ],
      "vertexType": "MolecularFragment"
    },
    {
      "lstAPs": [
        {
          "id": 75696,
          "atomPositionNumber": 0,
          "atomPositionNumberInMol": 32,
          "apClass": {
            "rule": "Xlig",
            "subClass": 1,
            "bndTyp": "SINGLE"
          },
          "dirVec": {
            "x": -0.102,
            "y": 0.0185,
            "z": -1.0265
          }
        }
      ],
      "lstSymAPs": [],
      "mol": {
        "atoms": [
          {
            "elSymbol": "S",
            "p3d": {
              "x": -0.3267,
              "y": 2.3403,
              "z": -1.0022
            }
          },
          {
            "elSymbol": "C",
            "p3d": {
              "x": -0.626,
              "y": 2.4866,
              "z": 0.7805
            }
          },
          {
            "elSymbol": "H",
            "p3d": {
              "x": 0.1766,
              "y": 3.089,
              "z": 1.2414
            }
          },
          {
            "elSymbol": "H",
            "p3d": {
              "x": -0.651,
              "y": 1.5065,
              "z": 1.2643
            }
          },
          {
            "elSymbol": "H",
            "p3d": {
              "x": -1.5658,
              "y": 2.981,
              "z": 0.9515
            }
          }
        ],
        "bonds": [
          {
            "atomIds": [
              1,
              2
            ],
            "bo": "SINGLE"
          },
          {
            "atomIds": [
              1,
              3
            ],
            "bo": "SINGLE"
          },
          {
            "atomIds": [
              1,
              4
            ],
            "bo": "SINGLE"
          },
          {
            "atomIds": [
              0,
              1
            ],
            "bo": "SINGLE"
          }
        ]
      },
      "vertexId": 85,
      "buildingBlockId": 63,
      "buildingBlockType": "FRAGMENT",
      "isRCV": false,
      "properties": {
        "ATTACHMENT_POINTS": "1#Xlig:1:SINGLE:-0.1020%0.0185%-1.0265 "
      },
      "uniquefyingPropertyKeys": [],
      "allowedMutationTypes": [
        "DELETE",
        "EXTEND",
        "CHANGEBRANCH",
        "CHANGELINK",
        "ADDLINK",
        "DELETELINK",
        "DELETECHAIN"
      ],
      "vertexType": "MolecularFragment"
    },
    {
      "lstAPs": [
        {
          "id": 75721,
          "atomPositionNumber": 0,
          "atomPositionNumberInMol": 19,
          "apClass": {
            "rule": "SubRL",
            "subClass": 1,
            "bndTyp": "SINGLE"
          },
          "dirVec": {
            "x": 0.2857,
            "y": 0.39,
            "z": -0.6426
          }
        }
      ],
      "lstSymAPs": [],
      "mol": {
        "atoms": [
          {
            "elSymbol": "C",
            "p3d": {
              "x": 0.3842,
              "y": -0.0523,
              "z": 0.8329
            }
          },
          {
            "elSymbol": "C",
            "p3d": {
              "x": -0.6709,
              "y": 0.6882,
              "z": 1.6615
            }
          },
          {
            "elSymbol": "C",
            "p3d": {
              "x": 0.1554,
              "y": -1.558,
              "z": 0.9277
            }
          },
          {
            "elSymbol": "C",
            "p3d": {
              "x": 1.7886,
              "y": 0.2826,
              "z": 1.3761
            }
          },
          {
            "elSymbol": "H",
            "p3d": {
              "x": -0.5899,
              "y": 0.3841,
              "z": 2.6969
            }
          },
          {
            "elSymbol": "H",
            "p3d": {
              "x": 1.8617,
              "y": -0.0274,
              "z": 2.4067
            }
          },
          {
            "elSymbol": "H",
            "p3d": {
              "x": 0.2289,
              "y": -1.8635,
              "z": 1.9737
            }
          },
          {
            "elSymbol": "H",
            "p3d": {
              "x": 0.8983,
              "y": -2.0943,
              "z": 0.3332
            }
          },
          {
            "elSymbol": "H",
            "p3d": {
              "x": 2.5395,
              "y": -0.2409,
              "z": 0.7751
            }
          },
          {
            "elSymbol": "H",
            "p3d": {
              "x": 1.9553,
              "y": 1.3543,
              "z": 1.294
            }
          },
          {
            "elSymbol": "H",
            "p3d": {
              "x": -0.4937,
              "y": 1.7723,
              "z": 1.5856
            }
          },
          {
            "elSymbol": "H",
            "p3d": {
              "x": -1.6541,
              "y": 0.4601,
              "z": 1.2602
            }
          },
          {
            "elSymbol": "H",
            "p3d": {
              "x": -0.8514,
              "y": -1.792,
              "z": 0.5518
            }
          }
        ],
        "bonds": [
          {
            "atomIds": [
              0,
              1
            ],
            "bo": "SINGLE"
          },
          {
            "atomIds": [
              0,
              2
            ],
            "bo": "SINGLE"
          },
          {
            "atomIds": [
              0,
              3
            ],
            "bo": "SINGLE"
          },
          {
            "atomIds": [
              1,
              4
            ],
            "bo": "SINGLE"
          },
          {
            "atomIds": [
              3,
              5
            ],
            "bo": "SINGLE"
          },
          {
            "atomIds": [
              2,
              6
            ],
            "bo": "SINGLE"
          },
          {
            "atomIds": [
              2,
              7
            ],
            "bo": "SINGLE"
          },
          {
            "atomIds": [
              3,
              8
            ],
            "bo": "SINGLE"
          },
          {
            "atomIds": [
              3,
              9
            ],
            "bo": "SINGLE"
          },
          {
            "atomIds": [
              1,
              10
            ],
            "bo": "SINGLE"
          },
          {
            "atomIds": [
              1,
              11
            ],
            "bo": "SINGLE"
          },
          {
            "atomIds": [
              2,
              12
            ],
            "bo": "SINGLE"
          }
        ]
      },
      "vertexId": 56955,
      "buildingBlockId": 33,
      "buildingBlockType": "FRAGMENT",
      "isRCV": false,
      "properties": {
        "ATTACHMENT_POINTS": "1#SubRL:1:SINGLE:0.2857%0.3900%-0.6426 "
      },
      "uniquefyingPropertyKeys": [],
      "allowedMutationTypes": [
        "DELETE",
        "EXTEND",
        "CHANGEBRANCH",
        "CHANGELINK",
        "ADDLINK",
        "DELETELINK",
        "DELETECHAIN"
      ],
      "vertexType": "MolecularFragment"
    }
  ],
  "gEdges": [
    {
      "srcAPID": 75690,
      "trgAPID": 75693,
      "bondType": "SINGLE"
    },
    {
      "srcAPID": 75692,
      "trgAPID": 75695,
      "bondType": "SINGLE"
    },
    {
      "srcAPID": 75691,
      "trgAPID": 75696,
      "bondType": "SINGLE"
    },
    {
      "srcAPID": 75694,
      "trgAPID": 75721,
      "bondType": "SINGLE"
    }
  ],
  "gRings": [],
  "symVertices": []
}

> <SMILES>
[Pt](C#O)(OC([H])([H])[H])([P]1(OC(C(O1)([H])[H])([H])[H])C(C([H])([H])[H])(C([H])([H])[H])C([H])([H])[H])SC([H])([H])[H]

$$$$
