M00015769
  CDK     04222214173D

 48 51  0  0  0  0  0  0  0  0999 V2000
   -2.9485   -0.7818    0.3758 Pt  0  0  0  0  0  0  0  0  0  0  0  0
   -4.8649   -0.5902    0.6785 C   0  0  0  0  0  0  0  0  0  0  0  0
   -5.9860   -0.4797    0.8554 O   0  0  0  0  0  0  0  0  0  0  0  0
   -3.0853    1.4183   -0.4125 Cl  0  0  0  0  0  0  0  0  0  0  0  0
    0.0982   -0.1287   -1.3739 C   0  0  0  0  0  0  0  0  0  0  0  0
    0.8659    0.8647   -0.8773 C   0  0  0  0  0  0  0  0  0  0  0  0
    1.5668    1.8640   -1.7385 C   0  0  0  0  0  0  0  0  0  0  0  0
    0.7979    2.5702   -2.1350 H   0  0  0  0  0  0  0  0  0  0  0  0
    1.9864    1.3678   -2.6405 H   0  0  0  0  0  0  0  0  0  0  0  0
    2.6615    2.6484   -1.0087 C   0  0  0  0  0  0  0  0  0  0  0  0
    3.5535    2.0094   -0.8594 H   0  0  0  0  0  0  0  0  0  0  0  0
    2.9968    3.4949   -1.6387 H   0  0  0  0  0  0  0  0  0  0  0  0
    2.1489    3.1624    0.3398 C   0  0  0  0  0  0  0  0  0  0  0  0
    1.2552    3.8012    0.1876 H   0  0  0  0  0  0  0  0  0  0  0  0
    2.9066    3.8109    0.8191 H   0  0  0  0  0  0  0  0  0  0  0  0
    1.8020    1.9943    1.2690 C   0  0  0  0  0  0  0  0  0  0  0  0
    2.7371    1.5118    1.6318 H   0  0  0  0  0  0  0  0  0  0  0  0
    1.2983    2.3772    2.1854 H   0  0  0  0  0  0  0  0  0  0  0  0
    0.9480    0.9534    0.6205 C   0  0  0  0  0  0  0  0  0  0  0  0
    0.2323    0.0364    1.3066 C   0  0  0  0  0  0  0  0  0  0  0  0
   -0.6753   -1.0077    0.0644 P   0  0  0  0  0  0  0  0  0  0  0  0
    0.0435   -0.1851    2.7315 C   0  0  0  0  0  0  0  0  0  0  0  0
   -0.3080   -0.6236    5.4787 C   0  0  0  0  0  0  0  0  0  0  0  0
   -1.2535   -0.2424    3.2769 C   0  0  0  0  0  0  0  0  0  0  0  0
    1.1593   -0.3511    3.5701 C   0  0  0  0  0  0  0  0  0  0  0  0
    0.9799   -0.5702    4.9380 C   0  0  0  0  0  0  0  0  0  0  0  0
   -1.4205   -0.4591    4.6465 C   0  0  0  0  0  0  0  0  0  0  0  0
   -2.1390   -0.1082    2.6419 H   0  0  0  0  0  0  0  0  0  0  0  0
    2.1626   -0.3175    3.1521 H   0  0  0  0  0  0  0  0  0  0  0  0
    1.8468   -0.7012    5.5841 H   0  0  0  0  0  0  0  0  0  0  0  0
   -2.4253   -0.5042    5.0672 H   0  0  0  0  0  0  0  0  0  0  0  0
   -0.4463   -0.7956    6.5447 H   0  0  0  0  0  0  0  0  0  0  0  0
   -0.1746   -0.5307   -2.7463 C   0  0  0  0  0  0  0  0  0  0  0  0
   -0.6787   -1.3156   -5.3864 C   0  0  0  0  0  0  0  0  0  0  0  0
   -1.4192   -0.2536   -3.3357 C   0  0  0  0  0  0  0  0  0  0  0  0
    0.8167   -1.2022   -3.4828 C   0  0  0  0  0  0  0  0  0  0  0  0
    0.5600   -1.5926   -4.7990 C   0  0  0  0  0  0  0  0  0  0  0  0
   -1.6643   -0.6463   -4.6538 C   0  0  0  0  0  0  0  0  0  0  0  0
   -2.1907    0.2760   -2.7696 H   0  0  0  0  0  0  0  0  0  0  0  0
    1.7804   -1.4180   -3.0271 H   0  0  0  0  0  0  0  0  0  0  0  0
    1.3273   -2.1144   -5.3691 H   0  0  0  0  0  0  0  0  0  0  0  0
   -2.6297   -0.4291   -5.1108 H   0  0  0  0  0  0  0  0  0  0  0  0
   -0.8759   -1.6211   -6.4124 H   0  0  0  0  0  0  0  0  0  0  0  0
   -0.0992   -2.7736    0.1295 C   0  0  0  0  0  0  0  0  0  0  0  0
    0.9947   -2.8597    0.1189 H   0  0  0  0  0  0  0  0  0  0  0  0
   -0.4735   -3.2736    1.0441 H   0  0  0  0  0  0  0  0  0  0  0  0
   -0.4978   -3.3512   -0.7219 H   0  0  0  0  0  0  0  0  0  0  0  0
   -3.2707   -2.9336    1.2411 Cl  0  0  0  0  0  0  0  0  0  0  0  0
  2  3  3  0  0  0  0
  1  2  1  0  0  0  0
  1  4  1  0  0  0  0
  5  6  2  0  0  0  0
  6  7  1  0  0  0  0
  7  8  1  0  0  0  0
  9  7  1  0  0  0  0
 10  7  1  0  0  0  0
 11 10  1  0  0  0  0
 12 10  1  0  0  0  0
 13 10  1  0  0  0  0
 14 13  1  0  0  0  0
 15 13  1  0  0  0  0
 16 13  1  0  0  0  0
 16 19  1  0  0  0  0
 17 16  1  0  0  0  0
 18 16  1  0  0  0  0
 19  6  1  0  0  0  0
 20 19  2  0  0  0  0
 20 21  1  0  0  0  0
 21  5  1  0  0  0  0
  1 21  1  0  0  0  0
 22 25  1  0  0  0  0
 25 26  2  0  0  0  0
 23 26  1  0  0  0  0
 23 27  2  0  0  0  0
 24 27  1  0  0  0  0
 22 24  2  0  0  0  0
 26 30  1  0  0  0  0
 27 31  1  0  0  0  0
 23 32  1  0  0  0  0
 24 28  1  0  0  0  0
 25 29  1  0  0  0  0
 20 22  1  0  0  0  0
 33 36  1  0  0  0  0
 36 37  2  0  0  0  0
 34 37  1  0  0  0  0
 34 38  2  0  0  0  0
 35 38  1  0  0  0  0
 33 35  2  0  0  0  0
 37 41  1  0  0  0  0
 38 42  1  0  0  0  0
 34 43  1  0  0  0  0
 35 39  1  0  0  0  0
 36 40  1  0  0  0  0
  5 33  1  0  0  0  0
 44 45  1  0  0  0  0
 44 46  1  0  0  0  0
 44 47  1  0  0  0  0
 21 44  1  0  0  0  0
  1 48  1  0  0  0  0
M  END
> <PM6_ENERGY>
-51.213

> <UID>
HZLAPDPJMXBQFD-MQWAPJJJNA-L

> <FITNESS>
1.14034

> <GCODE>
17046

> <GraphENC>
17046 72_1_0,82_67_1,113_53_1,88_67_1,349746_36_1,349306_36_1,349310_31_1, 72_0_82_0_SINGLE_Xlig:0_Xlig:1,72_2_113_3_SINGLE_scaff:0_MPhosphole:1,72_1_88_0_SINGLE_Xlig:0_Xlig:1,113_1_349746_0_SINGLE_LPhospholeSubAlpha:0_SubArS:1,113_0_349306_0_SINGLE_LPhospholeSubAlpha:0_SubArS:1,113_2_349310_0_SINGLE_LPhospholeSubR:0_SubRS:1, SymmetricSet [symIds=[349746, 349306]] 

> <GraphJson>
{
  "graphId": 17046,
  "gVertices": [
    {
      "lstAPs": [
        {
          "id": 455633,
          "atomPositionNumber": 0,
          "atomPositionNumberInMol": 0,
          "apClass": {
            "rule": "Xlig",
            "subClass": 0,
            "bndTyp": "SINGLE"
          },
          "dirVec": {
            "x": -2.3339,
            "y": -0.0087,
            "z": 0.8172
          }
        },
        {
          "id": 455634,
          "atomPositionNumber": 0,
          "atomPositionNumberInMol": 0,
          "apClass": {
            "rule": "Xlig",
            "subClass": 0,
            "bndTyp": "SINGLE"
          },
          "dirVec": {
            "x": 2.336,
            "y": -5.0E-4,
            "z": 0.829
          }
        },
        {
          "id": 455635,
          "atomPositionNumber": 0,
          "atomPositionNumberInMol": 0,
          "apClass": {
            "rule": "scaff",
            "subClass": 0,
            "bndTyp": "SINGLE"
          },
          "dirVec": {
            "x": -0.0095,
            "y": 0.0046,
            "z": -1.7113
          }
        }
      ],
      "lstSymAPs": [
        {
          "symIds": [
            0,
            1
          ]
        }
      ],
      "mol": {
        "atoms": [
          {
            "elSymbol": "Pt",
            "p3d": {
              "x": -0.0098,
              "y": 0.0049,
              "z": 0.6289
            }
          },
          {
            "elSymbol": "C",
            "p3d": {
              "x": -6.0E-4,
              "y": 0.0016,
              "z": 2.5609
            }
          },
          {
            "elSymbol": "O",
            "p3d": {
              "x": 0.0025,
              "y": -0.0041,
              "z": 3.6974
            }
          },
          {
            "elSymbol": "Du",
            "p3d": {
              "x": -0.007,
              "y": 1.0013,
              "z": 0.6372
            }
          },
          {
            "elSymbol": "Du",
            "p3d": {
              "x": -0.0014,
              "y": 0.9902,
              "z": 2.5698
            }
          }
        ],
        "bonds": [
          {
            "atomIds": [
              1,
              2
            ],
            "bo": "TRIPLE"
          },
          {
            "atomIds": [
              0,
              1
            ],
            "bo": "SINGLE"
          },
          {
            "atomIds": [
              3,
              0
            ],
            "bo": "SINGLE"
          },
          {
            "atomIds": [
              4,
              1
            ],
            "bo": "SINGLE"
          }
        ]
      },
      "vertexId": 72,
      "buildingBlockId": 0,
      "buildingBlockType": "SCAFFOLD",
      "isRCV": false,
      "properties": {
        "ATTACHMENT_POINTS": "1#Xlig:0:SINGLE:-2.3339%-0.0087%0.8172,Xlig:0:SINGLE:2.3360%-0.0005%0.8290,scaff:0:SINGLE:-0.0095%0.0046%-1.7113 "
      },
      "uniquefyingPropertyKeys": [],
      "allowedMutationTypes": [
        "DELETE",
        "EXTEND",
        "CHANGEBRANCH",
        "CHANGELINK",
        "ADDLINK",
        "DELETELINK",
        "DELETECHAIN"
      ],
      "vertexType": "MolecularFragment"
    },
    {
      "lstAPs": [
        {
          "id": 455636,
          "atomPositionNumber": 0,
          "atomPositionNumberInMol": 5,
          "apClass": {
            "rule": "Xlig",
            "subClass": 1,
            "bndTyp": "SINGLE"
          },
          "dirVec": {
            "x": -0.0053,
            "y": -0.0027,
            "z": 0.63
          }
        }
      ],
      "lstSymAPs": [],
      "mol": {
        "atoms": [
          {
            "elSymbol": "Cl",
            "p3d": {
              "x": 2.3243,
              "y": -0.0063,
              "z": 0.8189
            }
          }
        ],
        "bonds": []
      },
      "vertexId": 82,
      "buildingBlockId": 66,
      "buildingBlockType": "FRAGMENT",
      "isRCV": false,
      "properties": {
        "ATTACHMENT_POINTS": "1#Xlig:1:SINGLE:-0.0053%-0.0027%0.6300 "
      },
      "uniquefyingPropertyKeys": [],
      "allowedMutationTypes": [
        "DELETE",
        "EXTEND",
        "CHANGEBRANCH",
        "CHANGELINK",
        "ADDLINK",
        "DELETELINK",
        "DELETECHAIN"
      ],
      "vertexType": "MolecularFragment"
    },
    {
      "lstAPs": [
        {
          "id": 455637,
          "atomPositionNumber": 0,
          "atomPositionNumberInMol": 6,
          "apClass": {
            "rule": "LPhospholeSubAlpha",
            "subClass": 0,
            "bndTyp": "SINGLE"
          },
          "dirVec": {
            "x": -0.8999,
            "y": 5.4204,
            "z": 13.4669
          }
        },
        {
          "id": 455638,
          "atomPositionNumber": 15,
          "atomPositionNumberInMol": 21,
          "apClass": {
            "rule": "LPhospholeSubAlpha",
            "subClass": 0,
            "bndTyp": "SINGLE"
          },
          "dirVec": {
            "x": 3.5623,
            "y": 2.5529,
            "z": 12.0521
          }
        },
        {
          "id": 455639,
          "atomPositionNumber": 16,
          "atomPositionNumberInMol": 22,
          "apClass": {
            "rule": "LPhospholeSubR",
            "subClass": 0,
            "bndTyp": "SINGLE"
          },
          "dirVec": {
            "x": 2.0225,
            "y": 5.5716,
            "z": 11.2441
          }
        },
        {
          "id": 455640,
          "atomPositionNumber": 16,
          "atomPositionNumberInMol": 22,
          "apClass": {
            "rule": "MPhosphole",
            "subClass": 1,
            "bndTyp": "SINGLE"
          },
          "dirVec": {
            "x": -0.1011,
            "y": 3.0668,
            "z": 10.3957
          }
        }
      ],
      "lstSymAPs": [
        {
          "symIds": [
            0,
            1
          ]
        }
      ],
      "mol": {
        "atoms": [
          {
            "elSymbol": "C",
            "p3d": {
              "x": 0.2969,
              "y": 4.5574,
              "z": 13.4258
            }
          },
          {
            "elSymbol": "C",
            "p3d": {
              "x": 0.8881,
              "y": 3.9044,
              "z": 14.4404
            }
          },
          {
            "elSymbol": "C",
            "p3d": {
              "x": 0.3791,
              "y": 3.8614,
              "z": 15.8547
            }
          },
          {
            "elSymbol": "H",
            "p3d": {
              "x": -0.4577,
              "y": 3.1638,
              "z": 15.8925
            }
          },
          {
            "elSymbol": "H",
            "p3d": {
              "x": 0.0028,
              "y": 4.8434,
              "z": 16.1153
            }
          },
          {
            "elSymbol": "C",
            "p3d": {
              "x": 1.435,
              "y": 3.4448,
              "z": 16.8579
            }
          },
          {
            "elSymbol": "H",
            "p3d": {
              "x": 2.1653,
              "y": 4.2406,
              "z": 16.9817
            }
          },
          {
            "elSymbol": "H",
            "p3d": {
              "x": 0.9586,
              "y": 3.2608,
              "z": 17.8327
            }
          },
          {
            "elSymbol": "C",
            "p3d": {
              "x": 2.1393,
              "y": 2.1908,
              "z": 16.397
            }
          },
          {
            "elSymbol": "H",
            "p3d": {
              "x": 1.413,
              "y": 1.4059,
              "z": 16.2173
            }
          },
          {
            "elSymbol": "H",
            "p3d": {
              "x": 2.8146,
              "y": 1.8507,
              "z": 17.1898
            }
          },
          {
            "elSymbol": "C",
            "p3d": {
              "x": 2.9464,
              "y": 2.4652,
              "z": 15.1475
            }
          },
          {
            "elSymbol": "H",
            "p3d": {
              "x": 3.7862,
              "y": 3.1033,
              "z": 15.3872
            }
          },
          {
            "elSymbol": "H",
            "p3d": {
              "x": 3.33,
              "y": 1.5425,
              "z": 14.7475
            }
          },
          {
            "elSymbol": "C",
            "p3d": {
              "x": 2.1189,
              "y": 3.16,
              "z": 14.0576
            }
          },
          {
            "elSymbol": "C",
            "p3d": {
              "x": 2.4181,
              "y": 3.1603,
              "z": 12.7535
            }
          },
          {
            "elSymbol": "P",
            "p3d": {
              "x": 1.1632,
              "y": 4.1331,
              "z": 11.8989
            }
          }
        ],
        "bonds": [
          {
            "atomIds": [
              0,
              1
            ],
            "bo": "DOUBLE"
          },
          {
            "atomIds": [
              1,
              2
            ],
            "bo": "SINGLE"
          },
          {
            "atomIds": [
              2,
              3
            ],
            "bo": "SINGLE"
          },
          {
            "atomIds": [
              4,
              2
            ],
            "bo": "SINGLE"
          },
          {
            "atomIds": [
              5,
              2
            ],
            "bo": "SINGLE"
          },
          {
            "atomIds": [
              6,
              5
            ],
            "bo": "SINGLE"
          },
          {
            "atomIds": [
              7,
              5
            ],
            "bo": "SINGLE"
          },
          {
            "atomIds": [
              8,
              5
            ],
            "bo": "SINGLE"
          },
          {
            "atomIds": [
              9,
              8
            ],
            "bo": "SINGLE"
          },
          {
            "atomIds": [
              10,
              8
            ],
            "bo": "SINGLE"
          },
          {
            "atomIds": [
              11,
              8
            ],
            "bo": "SINGLE"
          },
          {
            "atomIds": [
              11,
              14
            ],
            "bo": "SINGLE"
          },
          {
            "atomIds": [
              12,
              11
            ],
            "bo": "SINGLE"
          },
          {
            "atomIds": [
              13,
              11
            ],
            "bo": "SINGLE"
          },
          {
            "atomIds": [
              14,
              1
            ],
            "bo": "SINGLE"
          },
          {
            "atomIds": [
              15,
              14
            ],
            "bo": "DOUBLE"
          },
          {
            "atomIds": [
              15,
              16
            ],
            "bo": "SINGLE"
          },
          {
            "atomIds": [
              16,
              0
            ],
            "bo": "SINGLE"
          }
        ]
      },
      "vertexId": 113,
      "buildingBlockId": 52,
      "buildingBlockType": "FRAGMENT",
      "isRCV": false,
      "properties": {
        "ATTACHMENT_POINTS": "1#LPhospholeSubAlpha:0:SINGLE:-0.8999%5.4204%13.4669 16#LPhospholeSubAlpha:0:SINGLE:3.5623%2.5529%12.0521 17#LPhospholeSubR:0:SINGLE:2.0225%5.5716%11.2441,MPhosphole:1:SINGLE:-0.1011%3.0668%10.3957 "
      },
      "uniquefyingPropertyKeys": [],
      "allowedMutationTypes": [
        "DELETE",
        "EXTEND",
        "CHANGEBRANCH",
        "CHANGELINK",
        "ADDLINK",
        "DELETELINK",
        "DELETECHAIN"
      ],
      "vertexType": "MolecularFragment"
    },
    {
      "lstAPs": [
        {
          "id": 455641,
          "atomPositionNumber": 0,
          "atomPositionNumberInMol": 49,
          "apClass": {
            "rule": "Xlig",
            "subClass": 1,
            "bndTyp": "SINGLE"
          },
          "dirVec": {
            "x": -0.0053,
            "y": -0.0027,
            "z": 0.63
          }
        }
      ],
      "lstSymAPs": [],
      "mol": {
        "atoms": [
          {
            "elSymbol": "Cl",
            "p3d": {
              "x": 2.3243,
              "y": -0.0063,
              "z": 0.8189
            }
          }
        ],
        "bonds": []
      },
      "vertexId": 88,
      "buildingBlockId": 66,
      "buildingBlockType": "FRAGMENT",
      "isRCV": false,
      "properties": {
        "ATTACHMENT_POINTS": "1#Xlig:1:SINGLE:-0.0053%-0.0027%0.6300 "
      },
      "uniquefyingPropertyKeys": [],
      "allowedMutationTypes": [
        "DELETE",
        "EXTEND",
        "CHANGEBRANCH",
        "CHANGELINK",
        "ADDLINK",
        "DELETELINK",
        "DELETECHAIN"
      ],
      "vertexType": "MolecularFragment"
    },
    {
      "lstAPs": [
        {
          "id": 455678,
          "atomPositionNumber": 0,
          "atomPositionNumberInMol": 23,
          "apClass": {
            "rule": "SubArS",
            "subClass": 1,
            "bndTyp": "SINGLE"
          },
          "dirVec": {
            "x": 0.2973,
            "y": 0.3873,
            "z": -0.6389
          }
        }
      ],
      "lstSymAPs": [],
      "mol": {
        "atoms": [
          {
            "elSymbol": "C",
            "p3d": {
              "x": 1.6995,
              "y": 0.5593,
              "z": -1.2083
            }
          },
          {
            "elSymbol": "C",
            "p3d": {
              "x": 4.2563,
              "y": 0.8754,
              "z": -2.2592
            }
          },
          {
            "elSymbol": "C",
            "p3d": {
              "x": 2.3334,
              "y": 1.79,
              "z": -1.1338
            }
          },
          {
            "elSymbol": "C",
            "p3d": {
              "x": 2.3422,
              "y": -0.5107,
              "z": -1.8125
            }
          },
          {
            "elSymbol": "C",
            "p3d": {
              "x": 3.612,
              "y": -0.3527,
              "z": -2.3321
            }
          },
          {
            "elSymbol": "C",
            "p3d": {
              "x": 3.6062,
              "y": 1.9513,
              "z": -1.6526
            }
          },
          {
            "elSymbol": "H",
            "p3d": {
              "x": 1.833,
              "y": 2.6461,
              "z": -0.6488
            }
          },
          {
            "elSymbol": "H",
            "p3d": {
              "x": 1.8361,
              "y": -1.4773,
              "z": -1.887
            }
          },
          {
            "elSymbol": "H",
            "p3d": {
              "x": 4.115,
              "y": -1.2043,
              "z": -2.8152
            }
          },
          {
            "elSymbol": "H",
            "p3d": {
              "x": 4.1097,
              "y": 2.9214,
              "z": -1.5842
            }
          },
          {
            "elSymbol": "H",
            "p3d": {
              "x": 5.2498,
              "y": 0.9926,
              "z": -2.665
            }
          }
        ],
        "bonds": [
          {
            "atomIds": [
              0,
              3
            ],
            "bo": "SINGLE"
          },
          {
            "atomIds": [
              3,
              4
            ],
            "bo": "DOUBLE"
          },
          {
            "atomIds": [
              1,
              4
            ],
            "bo": "SINGLE"
          },
          {
            "atomIds": [
              1,
              5
            ],
            "bo": "DOUBLE"
          },
          {
            "atomIds": [
              2,
              5
            ],
            "bo": "SINGLE"
          },
          {
            "atomIds": [
              0,
              2
            ],
            "bo": "DOUBLE"
          },
          {
            "atomIds": [
              4,
              8
            ],
            "bo": "SINGLE"
          },
          {
            "atomIds": [
              5,
              9
            ],
            "bo": "SINGLE"
          },
          {
            "atomIds": [
              1,
              10
            ],
            "bo": "SINGLE"
          },
          {
            "atomIds": [
              2,
              6
            ],
            "bo": "SINGLE"
          },
          {
            "atomIds": [
              3,
              7
            ],
            "bo": "SINGLE"
          }
        ]
      },
      "vertexId": 349746,
      "buildingBlockId": 35,
      "buildingBlockType": "FRAGMENT",
      "isRCV": false,
      "properties": {
        "ATTACHMENT_POINTS": "1#SubArS:1:SINGLE:0.2973%0.3873%-0.6389 "
      },
      "uniquefyingPropertyKeys": [],
      "allowedMutationTypes": [
        "DELETE",
        "EXTEND",
        "CHANGEBRANCH",
        "CHANGELINK",
        "ADDLINK",
        "DELETELINK",
        "DELETECHAIN"
      ],
      "vertexType": "MolecularFragment"
    },
    {
      "lstAPs": [
        {
          "id": 455679,
          "atomPositionNumber": 0,
          "atomPositionNumberInMol": 34,
          "apClass": {
            "rule": "SubArS",
            "subClass": 1,
            "bndTyp": "SINGLE"
          },
          "dirVec": {
            "x": 0.2973,
            "y": 0.3873,
            "z": -0.6389
          }
        }
      ],
      "lstSymAPs": [],
      "mol": {
        "atoms": [
          {
            "elSymbol": "C",
            "p3d": {
              "x": 1.6995,
              "y": 0.5593,
              "z": -1.2083
            }
          },
          {
            "elSymbol": "C",
            "p3d": {
              "x": 4.2563,
              "y": 0.8754,
              "z": -2.2592
            }
          },
          {
            "elSymbol": "C",
            "p3d": {
              "x": 2.3334,
              "y": 1.79,
              "z": -1.1338
            }
          },
          {
            "elSymbol": "C",
            "p3d": {
              "x": 2.3422,
              "y": -0.5107,
              "z": -1.8125
            }
          },
          {
            "elSymbol": "C",
            "p3d": {
              "x": 3.612,
              "y": -0.3527,
              "z": -2.3321
            }
          },
          {
            "elSymbol": "C",
            "p3d": {
              "x": 3.6062,
              "y": 1.9513,
              "z": -1.6526
            }
          },
          {
            "elSymbol": "H",
            "p3d": {
              "x": 1.833,
              "y": 2.6461,
              "z": -0.6488
            }
          },
          {
            "elSymbol": "H",
            "p3d": {
              "x": 1.8361,
              "y": -1.4773,
              "z": -1.887
            }
          },
          {
            "elSymbol": "H",
            "p3d": {
              "x": 4.115,
              "y": -1.2043,
              "z": -2.8152
            }
          },
          {
            "elSymbol": "H",
            "p3d": {
              "x": 4.1097,
              "y": 2.9214,
              "z": -1.5842
            }
          },
          {
            "elSymbol": "H",
            "p3d": {
              "x": 5.2498,
              "y": 0.9926,
              "z": -2.665
            }
          }
        ],
        "bonds": [
          {
            "atomIds": [
              0,
              3
            ],
            "bo": "SINGLE"
          },
          {
            "atomIds": [
              3,
              4
            ],
            "bo": "DOUBLE"
          },
          {
            "atomIds": [
              1,
              4
            ],
            "bo": "SINGLE"
          },
          {
            "atomIds": [
              1,
              5
            ],
            "bo": "DOUBLE"
          },
          {
            "atomIds": [
              2,
              5
            ],
            "bo": "SINGLE"
          },
          {
            "atomIds": [
              0,
              2
            ],
            "bo": "DOUBLE"
          },
          {
            "atomIds": [
              4,
              8
            ],
            "bo": "SINGLE"
          },
          {
            "atomIds": [
              5,
              9
            ],
            "bo": "SINGLE"
          },
          {
            "atomIds": [
              1,
              10
            ],
            "bo": "SINGLE"
          },
          {
            "atomIds": [
              2,
              6
            ],
            "bo": "SINGLE"
          },
          {
            "atomIds": [
              3,
              7
            ],
            "bo": "SINGLE"
          }
        ]
      },
      "vertexId": 349306,
      "buildingBlockId": 35,
      "buildingBlockType": "FRAGMENT",
      "isRCV": false,
      "properties": {
        "ATTACHMENT_POINTS": "1#SubArS:1:SINGLE:0.2973%0.3873%-0.6389 "
      },
      "uniquefyingPropertyKeys": [],
      "allowedMutationTypes": [
        "DELETE",
        "EXTEND",
        "CHANGEBRANCH",
        "CHANGELINK",
        "ADDLINK",
        "DELETELINK",
        "DELETECHAIN"
      ],
      "vertexType": "MolecularFragment"
    },
    {
      "lstAPs": [
        {
          "id": 455680,
          "atomPositionNumber": 0,
          "atomPositionNumberInMol": 45,
          "apClass": {
            "rule": "SubRS",
            "subClass": 1,
            "bndTyp": "SINGLE"
          },
          "dirVec": {
            "x": 0.2865,
            "y": 0.3959,
            "z": -0.6387
          }
        }
      ],
      "lstSymAPs": [],
      "mol": {
        "atoms": [
          {
            "elSymbol": "C",
            "p3d": {
              "x": 0.3969,
              "y": -0.0496,
              "z": 0.8235
            }
          },
          {
            "elSymbol": "H",
            "p3d": {
              "x": -0.6146,
              "y": -0.163,
              "z": 1.2402
            }
          },
          {
            "elSymbol": "H",
            "p3d": {
              "x": 0.9335,
              "y": -0.9979,
              "z": 0.8998
            }
          },
          {
            "elSymbol": "H",
            "p3d": {
              "x": 0.9252,
              "y": 0.7237,
              "z": 1.3995
            }
          }
        ],
        "bonds": [
          {
            "atomIds": [
              0,
              1
            ],
            "bo": "SINGLE"
          },
          {
            "atomIds": [
              0,
              2
            ],
            "bo": "SINGLE"
          },
          {
            "atomIds": [
              0,
              3
            ],
            "bo": "SINGLE"
          }
        ]
      },
      "vertexId": 349310,
      "buildingBlockId": 30,
      "buildingBlockType": "FRAGMENT",
      "isRCV": false,
      "properties": {
        "ATTACHMENT_POINTS": "1#SubRS:1:SINGLE:0.2865%0.3959%-0.6387 "
      },
      "uniquefyingPropertyKeys": [],
      "allowedMutationTypes": [
        "DELETE",
        "EXTEND",
        "CHANGEBRANCH",
        "CHANGELINK",
        "ADDLINK",
        "DELETELINK",
        "DELETECHAIN"
      ],
      "vertexType": "MolecularFragment"
    }
  ],
  "gEdges": [
    {
      "srcAPID": 455633,
      "trgAPID": 455636,
      "bondType": "SINGLE"
    },
    {
      "srcAPID": 455635,
      "trgAPID": 455640,
      "bondType": "SINGLE"
    },
    {
      "srcAPID": 455634,
      "trgAPID": 455641,
      "bondType": "SINGLE"
    },
    {
      "srcAPID": 455638,
      "trgAPID": 455678,
      "bondType": "SINGLE"
    },
    {
      "srcAPID": 455637,
      "trgAPID": 455679,
      "bondType": "SINGLE"
    },
    {
      "srcAPID": 455639,
      "trgAPID": 455680,
      "bondType": "SINGLE"
    }
  ],
  "gRings": [],
  "symVertices": [
    {
      "symIds": [
        349746,
        349306
      ]
    }
  ]
}

> <SMILES>
[Pt](C#O)(Cl)([P]1(C(=C2C(C(C(C(C2=C1C=3C(=C(C(=C(C3[H])[H])[H])[H])[H])([H])[H])([H])[H])([H])[H])([H])[H])C=4C(=C(C(=C(C4[H])[H])[H])[H])[H])C([H])([H])[H])Cl

$$$$
