M00002375
  CDK     04222209323D

 46 48  0  0  0  0  0  0  0  0999 V2000
   -3.1846    0.1779   -0.0150 Pt  0  0  0  0  0  0  0  0  0  0  0  0
   -5.0940    0.1549    0.3670 C   0  0  0  0  0  0  0  0  0  0  0  0
   -6.2114    0.1062    0.6033 O   0  0  0  0  0  0  0  0  0  0  0  0
   -2.3431    2.1004    0.0941 O   0  0  0  0  0  0  0  0  0  0  0  0
   -2.6067    2.7382    1.3237 C   0  0  0  0  0  0  0  0  0  0  0  0
   -2.0687    3.6949    1.2964 H   0  0  0  0  0  0  0  0  0  0  0  0
   -2.2376    2.1211    2.1535 H   0  0  0  0  0  0  0  0  0  0  0  0
   -3.6865    2.9109    1.4116 H   0  0  0  0  0  0  0  0  0  0  0  0
   -0.9535    0.2488   -0.3923 P   0  0  0  0  0  0  0  0  0  0  0  0
   -0.2523   -1.2867   -0.4453 O   0  0  0  0  0  0  0  0  0  0  0  0
   -0.1782    0.9520    0.9184 O   0  0  0  0  0  0  0  0  0  0  0  0
    1.1931   -1.3211   -0.3833 C   0  0  0  0  0  0  0  0  0  0  0  0
    1.2672    0.8494    0.8814 C   0  0  0  0  0  0  0  0  0  0  0  0
    1.7396   -0.6181    0.8786 C   0  0  0  0  0  0  0  0  0  0  0  0
    3.2868   -0.6840    0.8795 C   0  0  0  0  0  0  0  0  0  0  0  0
    1.2890   -1.3693    2.1557 C   0  0  0  0  0  0  0  0  0  0  0  0
    2.4781   -2.2204    2.6330 C   0  0  0  0  0  0  0  0  0  0  0  0
    3.6574   -1.9406    1.6835 C   0  0  0  0  0  0  0  0  0  0  0  0
    1.3832   -2.4148   -0.3521 H   0  0  0  0  0  0  0  0  0  0  0  0
    1.6683    1.4325    0.0315 H   0  0  0  0  0  0  0  0  0  0  0  0
    3.7138    0.2137    1.3632 H   0  0  0  0  0  0  0  0  0  0  0  0
    0.9728   -0.6574    2.9388 H   0  0  0  0  0  0  0  0  0  0  0  0
    2.2218   -3.2934    2.6373 H   0  0  0  0  0  0  0  0  0  0  0  0
    3.8255   -2.7992    1.0095 H   0  0  0  0  0  0  0  0  0  0  0  0
    1.6190   -0.9128   -1.3176 H   0  0  0  0  0  0  0  0  0  0  0  0
    1.5366    1.3699    1.8248 H   0  0  0  0  0  0  0  0  0  0  0  0
    3.7090   -0.7096   -0.1375 H   0  0  0  0  0  0  0  0  0  0  0  0
    0.3986   -1.9932    1.9539 H   0  0  0  0  0  0  0  0  0  0  0  0
    2.7438   -1.9661    3.6738 H   0  0  0  0  0  0  0  0  0  0  0  0
    4.5986   -1.7976    2.2398 H   0  0  0  0  0  0  0  0  0  0  0  0
   -0.4165    1.0970   -1.9358 C   0  0  0  0  0  0  0  0  0  0  0  0
    0.3371    2.4161   -4.2620 C   0  0  0  0  0  0  0  0  0  0  0  0
   -0.4622    2.4909   -1.9747 C   0  0  0  0  0  0  0  0  0  0  0  0
   -0.0336    0.3486   -3.0517 C   0  0  0  0  0  0  0  0  0  0  0  0
    0.3521    1.0159   -4.2180 C   0  0  0  0  0  0  0  0  0  0  0  0
   -0.0722    3.1519   -3.1471 C   0  0  0  0  0  0  0  0  0  0  0  0
   -0.8242    3.0747   -1.1133 H   0  0  0  0  0  0  0  0  0  0  0  0
   -0.0399   -0.7452   -3.0411 H   0  0  0  0  0  0  0  0  0  0  0  0
    0.6531    0.4478   -5.0963 H   0  0  0  0  0  0  0  0  0  0  0  0
   -0.1027    4.2395   -3.1906 H   0  0  0  0  0  0  0  0  0  0  0  0
    0.6370    2.9319   -5.1744 H   0  0  0  0  0  0  0  0  0  0  0  0
   -3.8691   -2.0005   -0.3107 S   0  0  0  0  0  0  0  0  0  0  0  0
   -2.8234   -2.7627    0.9560 C   0  0  0  0  0  0  0  0  0  0  0  0
   -3.2339   -3.7450    1.2155 H   0  0  0  0  0  0  0  0  0  0  0  0
   -2.7848   -2.1483    1.8617 H   0  0  0  0  0  0  0  0  0  0  0  0
   -1.8022   -2.8991    0.5731 H   0  0  0  0  0  0  0  0  0  0  0  0
  2  3  3  0  0  0  0
  1  2  1  0  0  0  0
  5  6  1  0  0  0  0
  5  7  1  0  0  0  0
  5  8  1  0  0  0  0
  4  5  1  0  0  0  0
  1  4  1  0  0  0  0
 10  9  1  0  0  0  0
 11  9  1  0  0  0  0
 12 10  1  0  0  0  0
 13 11  1  0  0  0  0
 13 14  1  0  0  0  0
 14 12  1  0  0  0  0
 15 14  1  0  0  0  0
 16 14  1  0  0  0  0
 17 16  1  0  0  0  0
 17 18  1  0  0  0  0
 18 15  1  0  0  0  0
 19 12  1  0  0  0  0
 20 13  1  0  0  0  0
 21 15  1  0  0  0  0
 22 16  1  0  0  0  0
 23 17  1  0  0  0  0
 24 18  1  0  0  0  0
 25 12  1  0  0  0  0
 26 13  1  0  0  0  0
 27 15  1  0  0  0  0
 28 16  1  0  0  0  0
 29 17  1  0  0  0  0
 30 18  1  0  0  0  0
  1  9  1  0  0  0  0
 31 34  1  0  0  0  0
 34 35  2  0  0  0  0
 32 35  1  0  0  0  0
 32 36  2  0  0  0  0
 33 36  1  0  0  0  0
 31 33  2  0  0  0  0
 35 39  1  0  0  0  0
 36 40  1  0  0  0  0
 32 41  1  0  0  0  0
 33 37  1  0  0  0  0
 34 38  1  0  0  0  0
  9 31  1  0  0  0  0
 43 44  1  0  0  0  0
 43 45  1  0  0  0  0
 43 46  1  0  0  0  0
 42 43  1  0  0  0  0
  1 42  1  0  0  0  0
M  END
> <PM6_ENERGY>
-633.729

> <UID>
FOYQTYBBCVDEPF-ULCHOACGNA-M

> <FITNESS>
1.14315

> <GCODE>
3028

> <GraphENC>
3028 72_1_0,80_65_1,120_60_1,85_64_1,57213_36_1, 72_0_80_0_SINGLE_Xlig:0_Xlig:1,72_2_120_1_SINGLE_scaff:0_MPhosphonite:1,72_1_85_0_SINGLE_Xlig:0_Xlig:1,120_0_57213_0_SINGLE_LPhosphoniteSubR:0_SubArS:1, 

> <GraphJson>
{
  "graphId": 3028,
  "gVertices": [
    {
      "lstAPs": [
        {
          "id": 76030,
          "atomPositionNumber": 0,
          "atomPositionNumberInMol": 0,
          "apClass": {
            "rule": "Xlig",
            "subClass": 0,
            "bndTyp": "SINGLE"
          },
          "dirVec": {
            "x": -2.3339,
            "y": -0.0087,
            "z": 0.8172
          }
        },
        {
          "id": 76031,
          "atomPositionNumber": 0,
          "atomPositionNumberInMol": 0,
          "apClass": {
            "rule": "Xlig",
            "subClass": 0,
            "bndTyp": "SINGLE"
          },
          "dirVec": {
            "x": 2.336,
            "y": -5.0E-4,
            "z": 0.829
          }
        },
        {
          "id": 76032,
          "atomPositionNumber": 0,
          "atomPositionNumberInMol": 0,
          "apClass": {
            "rule": "scaff",
            "subClass": 0,
            "bndTyp": "SINGLE"
          },
          "dirVec": {
            "x": -0.0095,
            "y": 0.0046,
            "z": -1.7113
          }
        }
      ],
      "lstSymAPs": [
        {
          "symIds": [
            0,
            1
          ]
        }
      ],
      "mol": {
        "atoms": [
          {
            "elSymbol": "Pt",
            "p3d": {
              "x": -0.0098,
              "y": 0.0049,
              "z": 0.6289
            }
          },
          {
            "elSymbol": "C",
            "p3d": {
              "x": -6.0E-4,
              "y": 0.0016,
              "z": 2.5609
            }
          },
          {
            "elSymbol": "O",
            "p3d": {
              "x": 0.0025,
              "y": -0.0041,
              "z": 3.6974
            }
          },
          {
            "elSymbol": "Du",
            "p3d": {
              "x": -0.007,
              "y": 1.0013,
              "z": 0.6372
            }
          },
          {
            "elSymbol": "Du",
            "p3d": {
              "x": -0.0014,
              "y": 0.9902,
              "z": 2.5698
            }
          }
        ],
        "bonds": [
          {
            "atomIds": [
              1,
              2
            ],
            "bo": "TRIPLE"
          },
          {
            "atomIds": [
              0,
              1
            ],
            "bo": "SINGLE"
          },
          {
            "atomIds": [
              3,
              0
            ],
            "bo": "SINGLE"
          },
          {
            "atomIds": [
              4,
              1
            ],
            "bo": "SINGLE"
          }
        ]
      },
      "vertexId": 72,
      "buildingBlockId": 0,
      "buildingBlockType": "SCAFFOLD",
      "isRCV": false,
      "properties": {
        "ATTACHMENT_POINTS": "1#Xlig:0:SINGLE:-2.3339%-0.0087%0.8172,Xlig:0:SINGLE:2.3360%-0.0005%0.8290,scaff:0:SINGLE:-0.0095%0.0046%-1.7113 "
      },
      "uniquefyingPropertyKeys": [],
      "allowedMutationTypes": [
        "DELETE",
        "EXTEND",
        "CHANGEBRANCH",
        "CHANGELINK",
        "ADDLINK",
        "DELETELINK",
        "DELETECHAIN"
      ],
      "vertexType": "MolecularFragment"
    },
    {
      "lstAPs": [
        {
          "id": 76033,
          "atomPositionNumber": 0,
          "atomPositionNumberInMol": 5,
          "apClass": {
            "rule": "Xlig",
            "subClass": 1,
            "bndTyp": "SINGLE"
          },
          "dirVec": {
            "x": -0.1753,
            "y": 0.0948,
            "z": -0.4464
          }
        }
      ],
      "lstSymAPs": [],
      "mol": {
        "atoms": [
          {
            "elSymbol": "O",
            "p3d": {
              "x": -0.3534,
              "y": 2.1044,
              "z": -0.7339
            }
          },
          {
            "elSymbol": "C",
            "p3d": {
              "x": -0.5345,
              "y": 2.7646,
              "z": 0.4801
            }
          },
          {
            "elSymbol": "H",
            "p3d": {
              "x": -0.3728,
              "y": 3.8337,
              "z": 0.2724
            }
          },
          {
            "elSymbol": "H",
            "p3d": {
              "x": 0.1816,
              "y": 2.4161,
              "z": 1.2384
            }
          },
          {
            "elSymbol": "H",
            "p3d": {
              "x": -1.553,
              "y": 2.6149,
              "z": 0.8489
            }
          }
        ],
        "bonds": [
          {
            "atomIds": [
              1,
              2
            ],
            "bo": "SINGLE"
          },
          {
            "atomIds": [
              1,
              3
            ],
            "bo": "SINGLE"
          },
          {
            "atomIds": [
              1,
              4
            ],
            "bo": "SINGLE"
          },
          {
            "atomIds": [
              0,
              1
            ],
            "bo": "SINGLE"
          }
        ]
      },
      "vertexId": 80,
      "buildingBlockId": 64,
      "buildingBlockType": "FRAGMENT",
      "isRCV": false,
      "properties": {
        "ATTACHMENT_POINTS": "1#Xlig:1:SINGLE:-0.1753%0.0948%-0.4464 "
      },
      "uniquefyingPropertyKeys": [],
      "allowedMutationTypes": [
        "DELETE",
        "EXTEND",
        "CHANGEBRANCH",
        "CHANGELINK",
        "ADDLINK",
        "DELETELINK",
        "DELETECHAIN"
      ],
      "vertexType": "MolecularFragment"
    },
    {
      "lstAPs": [
        {
          "id": 76034,
          "atomPositionNumber": 0,
          "atomPositionNumberInMol": 10,
          "apClass": {
            "rule": "LPhosphoniteSubR",
            "subClass": 0,
            "bndTyp": "SINGLE"
          },
          "dirVec": {
            "x": 8.5833,
            "y": -0.8556,
            "z": 13.5393
          }
        },
        {
          "id": 76035,
          "atomPositionNumber": 0,
          "atomPositionNumberInMol": 10,
          "apClass": {
            "rule": "MPhosphonite",
            "subClass": 1,
            "bndTyp": "SINGLE"
          },
          "dirVec": {
            "x": 10.4864,
            "y": 1.7322,
            "z": 12.8008
          }
        }
      ],
      "lstSymAPs": [],
      "mol": {
        "atoms": [
          {
            "elSymbol": "P",
            "p3d": {
              "x": 9.4136,
              "y": 0.5115,
              "z": 14.3923
            }
          },
          {
            "elSymbol": "O",
            "p3d": {
              "x": 8.2442,
              "y": 1.2619,
              "z": 15.1868
            }
          },
          {
            "elSymbol": "O",
            "p3d": {
              "x": 10.2958,
              "y": -0.1433,
              "z": 15.5334
            }
          },
          {
            "elSymbol": "C",
            "p3d": {
              "x": 7.569,
              "y": 0.5127,
              "z": 16.2393
            }
          },
          {
            "elSymbol": "C",
            "p3d": {
              "x": 9.6126,
              "y": -0.8784,
              "z": 16.5841
            }
          },
          {
            "elSymbol": "C",
            "p3d": {
              "x": 8.5724,
              "y": -0.0317,
              "z": 17.272
            }
          },
          {
            "elSymbol": "C",
            "p3d": {
              "x": 7.8304,
              "y": -0.8777,
              "z": 18.3165
            }
          },
          {
            "elSymbol": "C",
            "p3d": {
              "x": 9.196,
              "y": 1.1315,
              "z": 18.0904
            }
          },
          {
            "elSymbol": "C",
            "p3d": {
              "x": 8.5732,
              "y": 1.0297,
              "z": 19.3942
            }
          },
          {
            "elSymbol": "C",
            "p3d": {
              "x": 7.5194,
              "y": 0.0547,
              "z": 19.4381
            }
          },
          {
            "elSymbol": "H",
            "p3d": {
              "x": 6.9817,
              "y": 1.2703,
              "z": 16.7546
            }
          },
          {
            "elSymbol": "H",
            "p3d": {
              "x": 9.0105,
              "y": -1.7019,
              "z": 16.1896
            }
          },
          {
            "elSymbol": "H",
            "p3d": {
              "x": 8.4263,
              "y": -1.7167,
              "z": 18.6441
            }
          },
          {
            "elSymbol": "H",
            "p3d": {
              "x": 10.2549,
              "y": 0.9263,
              "z": 17.976
            }
          },
          {
            "elSymbol": "H",
            "p3d": {
              "x": 8.3046,
              "y": 1.9671,
              "z": 19.8829
            }
          },
          {
            "elSymbol": "H",
            "p3d": {
              "x": 6.5618,
              "y": 0.5532,
              "z": 19.2885
            }
          },
          {
            "elSymbol": "H",
            "p3d": {
              "x": 7.1262,
              "y": -0.3475,
              "z": 15.7389
            }
          },
          {
            "elSymbol": "H",
            "p3d": {
              "x": 10.5271,
              "y": -1.1697,
              "z": 17.0978
            }
          },
          {
            "elSymbol": "H",
            "p3d": {
              "x": 6.9137,
              "y": -1.2746,
              "z": 17.8773
            }
          },
          {
            "elSymbol": "H",
            "p3d": {
              "x": 9.6349,
              "y": 2.045,
              "z": 17.6739
            }
          },
          {
            "elSymbol": "H",
            "p3d": {
              "x": 9.3306,
              "y": 0.6014,
              "z": 20.0507
            }
          },
          {
            "elSymbol": "H",
            "p3d": {
              "x": 7.4379,
              "y": -0.5103,
              "z": 20.3832
            }
          }
        ],
        "bonds": [
          {
            "atomIds": [
              1,
              0
            ],
            "bo": "SINGLE"
          },
          {
            "atomIds": [
              2,
              0
            ],
            "bo": "SINGLE"
          },
          {
            "atomIds": [
              3,
              1
            ],
            "bo": "SINGLE"
          },
          {
            "atomIds": [
              4,
              2
            ],
            "bo": "SINGLE"
          },
          {
            "atomIds": [
              4,
              5
            ],
            "bo": "SINGLE"
          },
          {
            "atomIds": [
              5,
              3
            ],
            "bo": "SINGLE"
          },
          {
            "atomIds": [
              6,
              5
            ],
            "bo": "SINGLE"
          },
          {
            "atomIds": [
              7,
              5
            ],
            "bo": "SINGLE"
          },
          {
            "atomIds": [
              8,
              7
            ],
            "bo": "SINGLE"
          },
          {
            "atomIds": [
              8,
              9
            ],
            "bo": "SINGLE"
          },
          {
            "atomIds": [
              9,
              6
            ],
            "bo": "SINGLE"
          },
          {
            "atomIds": [
              10,
              3
            ],
            "bo": "SINGLE"
          },
          {
            "atomIds": [
              11,
              4
            ],
            "bo": "SINGLE"
          },
          {
            "atomIds": [
              12,
              6
            ],
            "bo": "SINGLE"
          },
          {
            "atomIds": [
              13,
              7
            ],
            "bo": "SINGLE"
          },
          {
            "atomIds": [
              14,
              8
            ],
            "bo": "SINGLE"
          },
          {
            "atomIds": [
              15,
              9
            ],
            "bo": "SINGLE"
          },
          {
            "atomIds": [
              16,
              3
            ],
            "bo": "SINGLE"
          },
          {
            "atomIds": [
              17,
              4
            ],
            "bo": "SINGLE"
          },
          {
            "atomIds": [
              18,
              6
            ],
            "bo": "SINGLE"
          },
          {
            "atomIds": [
              19,
              7
            ],
            "bo": "SINGLE"
          },
          {
            "atomIds": [
              20,
              8
            ],
            "bo": "SINGLE"
          },
          {
            "atomIds": [
              21,
              9
            ],
            "bo": "SINGLE"
          }
        ]
      },
      "vertexId": 120,
      "buildingBlockId": 59,
      "buildingBlockType": "FRAGMENT",
      "isRCV": false,
      "properties": {
        "ATTACHMENT_POINTS": "1#LPhosphoniteSubR:0:SINGLE:8.5833%-0.8556%13.5393,MPhosphonite:1:SINGLE:10.4864%1.7322%12.8008 "
      },
      "uniquefyingPropertyKeys": [],
      "allowedMutationTypes": [
        "DELETE",
        "EXTEND",
        "CHANGEBRANCH",
        "CHANGELINK",
        "ADDLINK",
        "DELETELINK",
        "DELETECHAIN"
      ],
      "vertexType": "MolecularFragment"
    },
    {
      "lstAPs": [
        {
          "id": 76036,
          "atomPositionNumber": 0,
          "atomPositionNumberInMol": 43,
          "apClass": {
            "rule": "Xlig",
            "subClass": 1,
            "bndTyp": "SINGLE"
          },
          "dirVec": {
            "x": -0.102,
            "y": 0.0185,
            "z": -1.0265
          }
        }
      ],
      "lstSymAPs": [],
      "mol": {
        "atoms": [
          {
            "elSymbol": "S",
            "p3d": {
              "x": -0.3267,
              "y": 2.3403,
              "z": -1.0022
            }
          },
          {
            "elSymbol": "C",
            "p3d": {
              "x": -0.626,
              "y": 2.4866,
              "z": 0.7805
            }
          },
          {
            "elSymbol": "H",
            "p3d": {
              "x": 0.1766,
              "y": 3.089,
              "z": 1.2414
            }
          },
          {
            "elSymbol": "H",
            "p3d": {
              "x": -0.651,
              "y": 1.5065,
              "z": 1.2643
            }
          },
          {
            "elSymbol": "H",
            "p3d": {
              "x": -1.5658,
              "y": 2.981,
              "z": 0.9515
            }
          }
        ],
        "bonds": [
          {
            "atomIds": [
              1,
              2
            ],
            "bo": "SINGLE"
          },
          {
            "atomIds": [
              1,
              3
            ],
            "bo": "SINGLE"
          },
          {
            "atomIds": [
              1,
              4
            ],
            "bo": "SINGLE"
          },
          {
            "atomIds": [
              0,
              1
            ],
            "bo": "SINGLE"
          }
        ]
      },
      "vertexId": 85,
      "buildingBlockId": 63,
      "buildingBlockType": "FRAGMENT",
      "isRCV": false,
      "properties": {
        "ATTACHMENT_POINTS": "1#Xlig:1:SINGLE:-0.1020%0.0185%-1.0265 "
      },
      "uniquefyingPropertyKeys": [],
      "allowedMutationTypes": [
        "DELETE",
        "EXTEND",
        "CHANGEBRANCH",
        "CHANGELINK",
        "ADDLINK",
        "DELETELINK",
        "DELETECHAIN"
      ],
      "vertexType": "MolecularFragment"
    },
    {
      "lstAPs": [
        {
          "id": 76061,
          "atomPositionNumber": 0,
          "atomPositionNumberInMol": 32,
          "apClass": {
            "rule": "SubArS",
            "subClass": 1,
            "bndTyp": "SINGLE"
          },
          "dirVec": {
            "x": 0.2973,
            "y": 0.3873,
            "z": -0.6389
          }
        }
      ],
      "lstSymAPs": [],
      "mol": {
        "atoms": [
          {
            "elSymbol": "C",
            "p3d": {
              "x": 1.6995,
              "y": 0.5593,
              "z": -1.2083
            }
          },
          {
            "elSymbol": "C",
            "p3d": {
              "x": 4.2563,
              "y": 0.8754,
              "z": -2.2592
            }
          },
          {
            "elSymbol": "C",
            "p3d": {
              "x": 2.3334,
              "y": 1.79,
              "z": -1.1338
            }
          },
          {
            "elSymbol": "C",
            "p3d": {
              "x": 2.3422,
              "y": -0.5107,
              "z": -1.8125
            }
          },
          {
            "elSymbol": "C",
            "p3d": {
              "x": 3.612,
              "y": -0.3527,
              "z": -2.3321
            }
          },
          {
            "elSymbol": "C",
            "p3d": {
              "x": 3.6062,
              "y": 1.9513,
              "z": -1.6526
            }
          },
          {
            "elSymbol": "H",
            "p3d": {
              "x": 1.833,
              "y": 2.6461,
              "z": -0.6488
            }
          },
          {
            "elSymbol": "H",
            "p3d": {
              "x": 1.8361,
              "y": -1.4773,
              "z": -1.887
            }
          },
          {
            "elSymbol": "H",
            "p3d": {
              "x": 4.115,
              "y": -1.2043,
              "z": -2.8152
            }
          },
          {
            "elSymbol": "H",
            "p3d": {
              "x": 4.1097,
              "y": 2.9214,
              "z": -1.5842
            }
          },
          {
            "elSymbol": "H",
            "p3d": {
              "x": 5.2498,
              "y": 0.9926,
              "z": -2.665
            }
          }
        ],
        "bonds": [
          {
            "atomIds": [
              0,
              3
            ],
            "bo": "SINGLE"
          },
          {
            "atomIds": [
              3,
              4
            ],
            "bo": "DOUBLE"
          },
          {
            "atomIds": [
              1,
              4
            ],
            "bo": "SINGLE"
          },
          {
            "atomIds": [
              1,
              5
            ],
            "bo": "DOUBLE"
          },
          {
            "atomIds": [
              2,
              5
            ],
            "bo": "SINGLE"
          },
          {
            "atomIds": [
              0,
              2
            ],
            "bo": "DOUBLE"
          },
          {
            "atomIds": [
              4,
              8
            ],
            "bo": "SINGLE"
          },
          {
            "atomIds": [
              5,
              9
            ],
            "bo": "SINGLE"
          },
          {
            "atomIds": [
              1,
              10
            ],
            "bo": "SINGLE"
          },
          {
            "atomIds": [
              2,
              6
            ],
            "bo": "SINGLE"
          },
          {
            "atomIds": [
              3,
              7
            ],
            "bo": "SINGLE"
          }
        ]
      },
      "vertexId": 57213,
      "buildingBlockId": 35,
      "buildingBlockType": "FRAGMENT",
      "isRCV": false,
      "properties": {
        "ATTACHMENT_POINTS": "1#SubArS:1:SINGLE:0.2973%0.3873%-0.6389 "
      },
      "uniquefyingPropertyKeys": [],
      "allowedMutationTypes": [
        "DELETE",
        "EXTEND",
        "CHANGEBRANCH",
        "CHANGELINK",
        "ADDLINK",
        "DELETELINK",
        "DELETECHAIN"
      ],
      "vertexType": "MolecularFragment"
    }
  ],
  "gEdges": [
    {
      "srcAPID": 76030,
      "trgAPID": 76033,
      "bondType": "SINGLE"
    },
    {
      "srcAPID": 76032,
      "trgAPID": 76035,
      "bondType": "SINGLE"
    },
    {
      "srcAPID": 76031,
      "trgAPID": 76036,
      "bondType": "SINGLE"
    },
    {
      "srcAPID": 76034,
      "trgAPID": 76061,
      "bondType": "SINGLE"
    }
  ],
  "gRings": [],
  "symVertices": []
}

> <SMILES>
[Pt](C#O)(OC([H])([H])[H])([P]1(OC(C2(C(O1)([H])[H])C(C(C(C2([H])[H])([H])[H])([H])[H])([H])[H])([H])[H])C=3C(=C(C(=C(C3[H])[H])[H])[H])[H])SC([H])([H])[H]

$$$$
