M00007290
  CDK     04222211203D

 49 52  0  0  0  0  0  0  0  0999 V2000
   -3.3052   -0.2999   -0.6282 Pt  0  0  0  0  0  0  0  0  0  0  0  0
   -5.2281   -0.4709   -0.9792 C   0  0  0  0  0  0  0  0  0  0  0  0
   -6.3344   -0.6160   -1.2129 O   0  0  0  0  0  0  0  0  0  0  0  0
   -3.3987    1.4280    0.3788 C   0  0  0  0  0  0  0  0  0  0  0  0
   -3.4878    2.4192    0.9659 N   0  0  0  0  0  0  0  0  0  0  0  0
   -1.0882   -0.2385   -0.2612 P   0  0  0  0  0  0  0  0  0  0  0  0
   -0.4646    1.3117   -0.2234 O   0  0  0  0  0  0  0  0  0  0  0  0
   -0.2580   -0.9689   -1.5268 O   0  0  0  0  0  0  0  0  0  0  0  0
    0.9886    1.3768   -0.2278 C   0  0  0  0  0  0  0  0  0  0  0  0
    1.1827   -0.7912   -1.4905 C   0  0  0  0  0  0  0  0  0  0  0  0
    1.5899    0.6955   -1.4754 C   0  0  0  0  0  0  0  0  0  0  0  0
    3.1333    0.8228   -1.4363 C   0  0  0  0  0  0  0  0  0  0  0  0
    1.1374    1.4286   -2.7632 C   0  0  0  0  0  0  0  0  0  0  0  0
    2.3242    2.2744   -3.2553 C   0  0  0  0  0  0  0  0  0  0  0  0
    3.4749    2.0796   -2.2521 C   0  0  0  0  0  0  0  0  0  0  0  0
    1.1466    2.4770   -0.2475 H   0  0  0  0  0  0  0  0  0  0  0  0
    1.6062   -1.3608   -0.6422 H   0  0  0  0  0  0  0  0  0  0  0  0
    3.6098   -0.0643   -1.8928 H   0  0  0  0  0  0  0  0  0  0  0  0
    0.8171    0.7086   -3.5369 H   0  0  0  0  0  0  0  0  0  0  0  0
    2.0468    3.3393   -3.3377 H   0  0  0  0  0  0  0  0  0  0  0  0
    3.5679    2.9602   -1.5917 H   0  0  0  0  0  0  0  0  0  0  0  0
    1.3829    0.9770    0.7248 H   0  0  0  0  0  0  0  0  0  0  0  0
    1.4778   -1.2917   -2.4373 H   0  0  0  0  0  0  0  0  0  0  0  0
    3.5266    0.8825   -0.4089 H   0  0  0  0  0  0  0  0  0  0  0  0
    0.2486    2.0584   -2.5682 H   0  0  0  0  0  0  0  0  0  0  0  0
    2.6305    1.9599   -4.2684 H   0  0  0  0  0  0  0  0  0  0  0  0
    4.4458    1.9756   -2.7643 H   0  0  0  0  0  0  0  0  0  0  0  0
   -0.5436   -3.0015    0.1495 H   0  0  0  0  0  0  0  0  0  0  0  0
   -0.3876   -2.4886    1.1083 C   0  0  0  0  0  0  0  0  0  0  0  0
   -0.5690   -1.1338    1.2629 C   0  0  0  0  0  0  0  0  0  0  0  0
    0.2132   -2.6977    3.4439 C   0  0  0  0  0  0  0  0  0  0  0  0
   -0.4087   -0.4894    2.5270 C   0  0  0  0  0  0  0  0  0  0  0  0
    0.0141   -3.2830    2.2174 C   0  0  0  0  0  0  0  0  0  0  0  0
    0.0061   -1.2954    3.6271 C   0  0  0  0  0  0  0  0  0  0  0  0
   -0.6481    0.9042    2.7622 C   0  0  0  0  0  0  0  0  0  0  0  0
    0.1509   -4.3547    2.0765 H   0  0  0  0  0  0  0  0  0  0  0  0
    0.5208   -1.3293    5.7405 H   0  0  0  0  0  0  0  0  0  0  0  0
    0.5243   -3.2968    4.3018 H   0  0  0  0  0  0  0  0  0  0  0  0
   -0.4685    1.4473    4.0092 C   0  0  0  0  0  0  0  0  0  0  0  0
   -1.0024    1.5529    1.9522 H   0  0  0  0  0  0  0  0  0  0  0  0
   -0.6689    2.5063    4.1845 H   0  0  0  0  0  0  0  0  0  0  0  0
   -0.0318    0.6415    5.1009 C   0  0  0  0  0  0  0  0  0  0  0  0
    0.1044    1.1062    6.0766 H   0  0  0  0  0  0  0  0  0  0  0  0
    0.1972   -0.6967    4.9141 C   0  0  0  0  0  0  0  0  0  0  0  0
   -3.4745   -2.3209   -1.7836 S   0  0  0  0  0  0  0  0  0  0  0  0
   -2.6965   -1.7869   -3.3335 C   0  0  0  0  0  0  0  0  0  0  0  0
   -1.6032   -1.8534   -3.2525 H   0  0  0  0  0  0  0  0  0  0  0  0
   -2.9717   -0.7573   -3.5828 H   0  0  0  0  0  0  0  0  0  0  0  0
   -3.0293   -2.4458   -4.1435 H   0  0  0  0  0  0  0  0  0  0  0  0
  2  3  3  0  0  0  0
  1  2  1  0  0  0  0
  4  5  3  0  0  0  0
  1  4  1  0  0  0  0
  7  6  1  0  0  0  0
  8  6  1  0  0  0  0
  9  7  1  0  0  0  0
 10  8  1  0  0  0  0
 10 11  1  0  0  0  0
 11  9  1  0  0  0  0
 12 11  1  0  0  0  0
 13 11  1  0  0  0  0
 14 13  1  0  0  0  0
 14 15  1  0  0  0  0
 15 12  1  0  0  0  0
 16  9  1  0  0  0  0
 17 10  1  0  0  0  0
 18 12  1  0  0  0  0
 19 13  1  0  0  0  0
 20 14  1  0  0  0  0
 21 15  1  0  0  0  0
 22  9  1  0  0  0  0
 23 10  1  0  0  0  0
 24 12  1  0  0  0  0
 25 13  1  0  0  0  0
 26 14  1  0  0  0  0
 27 15  1  0  0  0  0
  1  6  1  0  0  0  0
 28 29  1  0  0  0  0
 29 30  1  0  0  0  0
 29 33  2  0  0  0  0
 30 32  2  0  0  0  0
 32 34  1  0  0  0  0
 31 33  1  0  0  0  0
 31 34  2  0  0  0  0
 35 32  1  0  0  0  0
 34 44  1  0  0  0  0
 35 39  2  0  0  0  0
 39 42  1  0  0  0  0
 42 44  2  0  0  0  0
 31 38  1  0  0  0  0
 33 36  1  0  0  0  0
 35 40  1  0  0  0  0
 37 44  1  0  0  0  0
 42 43  1  0  0  0  0
 39 41  1  0  0  0  0
  6 30  1  0  0  0  0
 46 47  1  0  0  0  0
 46 48  1  0  0  0  0
 46 49  1  0  0  0  0
 45 46  1  0  0  0  0
  1 45  1  0  0  0  0
M  END
> <PM6_ENERGY>
-275.635

> <UID>
ZVMXKYXYXRBMBU-NCYMAWFMNA-M

> <FITNESS>
1.13999

> <GCODE>
8163

> <GraphENC>
8163 72_1_0,81_66_1,120_60_1,85_64_1,164441_39_1, 72_0_81_0_SINGLE_Xlig:0_Xlig:1,72_2_120_1_SINGLE_scaff:0_MPhosphonite:1,72_1_85_0_SINGLE_Xlig:0_Xlig:1,120_0_164441_0_SINGLE_LPhosphoniteSubR:0_SubArM:1, 

> <GraphJson>
{
  "graphId": 8163,
  "gVertices": [
    {
      "lstAPs": [
        {
          "id": 215061,
          "atomPositionNumber": 0,
          "atomPositionNumberInMol": 0,
          "apClass": {
            "rule": "Xlig",
            "subClass": 0,
            "bndTyp": "SINGLE"
          },
          "dirVec": {
            "x": -2.3339,
            "y": -0.0087,
            "z": 0.8172
          }
        },
        {
          "id": 215062,
          "atomPositionNumber": 0,
          "atomPositionNumberInMol": 0,
          "apClass": {
            "rule": "Xlig",
            "subClass": 0,
            "bndTyp": "SINGLE"
          },
          "dirVec": {
            "x": 2.336,
            "y": -5.0E-4,
            "z": 0.829
          }
        },
        {
          "id": 215063,
          "atomPositionNumber": 0,
          "atomPositionNumberInMol": 0,
          "apClass": {
            "rule": "scaff",
            "subClass": 0,
            "bndTyp": "SINGLE"
          },
          "dirVec": {
            "x": -0.0095,
            "y": 0.0046,
            "z": -1.7113
          }
        }
      ],
      "lstSymAPs": [
        {
          "symIds": [
            0,
            1
          ]
        }
      ],
      "mol": {
        "atoms": [
          {
            "elSymbol": "Pt",
            "p3d": {
              "x": -0.0098,
              "y": 0.0049,
              "z": 0.6289
            }
          },
          {
            "elSymbol": "C",
            "p3d": {
              "x": -6.0E-4,
              "y": 0.0016,
              "z": 2.5609
            }
          },
          {
            "elSymbol": "O",
            "p3d": {
              "x": 0.0025,
              "y": -0.0041,
              "z": 3.6974
            }
          },
          {
            "elSymbol": "Du",
            "p3d": {
              "x": -0.007,
              "y": 1.0013,
              "z": 0.6372
            }
          },
          {
            "elSymbol": "Du",
            "p3d": {
              "x": -0.0014,
              "y": 0.9902,
              "z": 2.5698
            }
          }
        ],
        "bonds": [
          {
            "atomIds": [
              1,
              2
            ],
            "bo": "TRIPLE"
          },
          {
            "atomIds": [
              0,
              1
            ],
            "bo": "SINGLE"
          },
          {
            "atomIds": [
              3,
              0
            ],
            "bo": "SINGLE"
          },
          {
            "atomIds": [
              4,
              1
            ],
            "bo": "SINGLE"
          }
        ]
      },
      "vertexId": 72,
      "buildingBlockId": 0,
      "buildingBlockType": "SCAFFOLD",
      "isRCV": false,
      "properties": {
        "ATTACHMENT_POINTS": "1#Xlig:0:SINGLE:-2.3339%-0.0087%0.8172,Xlig:0:SINGLE:2.3360%-0.0005%0.8290,scaff:0:SINGLE:-0.0095%0.0046%-1.7113 "
      },
      "uniquefyingPropertyKeys": [],
      "allowedMutationTypes": [
        "DELETE",
        "EXTEND",
        "CHANGEBRANCH",
        "CHANGELINK",
        "ADDLINK",
        "DELETELINK",
        "DELETECHAIN"
      ],
      "vertexType": "MolecularFragment"
    },
    {
      "lstAPs": [
        {
          "id": 215064,
          "atomPositionNumber": 0,
          "atomPositionNumberInMol": 5,
          "apClass": {
            "rule": "Xlig",
            "subClass": 1,
            "bndTyp": "SINGLE"
          },
          "dirVec": {
            "x": 0.0192,
            "y": -0.0048,
            "z": -0.5645
          }
        }
      ],
      "lstSymAPs": [],
      "mol": {
        "atoms": [
          {
            "elSymbol": "C",
            "p3d": {
              "x": -1.967,
              "y": -0.0075,
              "z": -0.4937
            }
          },
          {
            "elSymbol": "N",
            "p3d": {
              "x": -3.1263,
              "y": -0.0054,
              "z": -0.4354
            }
          },
          {
            "elSymbol": "Du",
            "p3d": {
              "x": -1.9744,
              "y": 0.9926,
              "z": -0.5036
            }
          }
        ],
        "bonds": [
          {
            "atomIds": [
              0,
              1
            ],
            "bo": "TRIPLE"
          },
          {
            "atomIds": [
              2,
              0
            ],
            "bo": "SINGLE"
          }
        ]
      },
      "vertexId": 81,
      "buildingBlockId": 65,
      "buildingBlockType": "FRAGMENT",
      "isRCV": false,
      "properties": {
        "ATTACHMENT_POINTS": "1#Xlig:1:SINGLE:0.0192%-0.0048%-0.5645 "
      },
      "uniquefyingPropertyKeys": [],
      "allowedMutationTypes": [
        "DELETE",
        "EXTEND",
        "CHANGEBRANCH",
        "CHANGELINK",
        "ADDLINK",
        "DELETELINK",
        "DELETECHAIN"
      ],
      "vertexType": "MolecularFragment"
    },
    {
      "lstAPs": [
        {
          "id": 215065,
          "atomPositionNumber": 0,
          "atomPositionNumberInMol": 8,
          "apClass": {
            "rule": "LPhosphoniteSubR",
            "subClass": 0,
            "bndTyp": "SINGLE"
          },
          "dirVec": {
            "x": 8.5833,
            "y": -0.8556,
            "z": 13.5393
          }
        },
        {
          "id": 215066,
          "atomPositionNumber": 0,
          "atomPositionNumberInMol": 8,
          "apClass": {
            "rule": "MPhosphonite",
            "subClass": 1,
            "bndTyp": "SINGLE"
          },
          "dirVec": {
            "x": 10.4864,
            "y": 1.7322,
            "z": 12.8008
          }
        }
      ],
      "lstSymAPs": [],
      "mol": {
        "atoms": [
          {
            "elSymbol": "P",
            "p3d": {
              "x": 9.4136,
              "y": 0.5115,
              "z": 14.3923
            }
          },
          {
            "elSymbol": "O",
            "p3d": {
              "x": 8.2442,
              "y": 1.2619,
              "z": 15.1868
            }
          },
          {
            "elSymbol": "O",
            "p3d": {
              "x": 10.2958,
              "y": -0.1433,
              "z": 15.5334
            }
          },
          {
            "elSymbol": "C",
            "p3d": {
              "x": 7.569,
              "y": 0.5127,
              "z": 16.2393
            }
          },
          {
            "elSymbol": "C",
            "p3d": {
              "x": 9.6126,
              "y": -0.8784,
              "z": 16.5841
            }
          },
          {
            "elSymbol": "C",
            "p3d": {
              "x": 8.5724,
              "y": -0.0317,
              "z": 17.272
            }
          },
          {
            "elSymbol": "C",
            "p3d": {
              "x": 7.8304,
              "y": -0.8777,
              "z": 18.3165
            }
          },
          {
            "elSymbol": "C",
            "p3d": {
              "x": 9.196,
              "y": 1.1315,
              "z": 18.0904
            }
          },
          {
            "elSymbol": "C",
            "p3d": {
              "x": 8.5732,
              "y": 1.0297,
              "z": 19.3942
            }
          },
          {
            "elSymbol": "C",
            "p3d": {
              "x": 7.5194,
              "y": 0.0547,
              "z": 19.4381
            }
          },
          {
            "elSymbol": "H",
            "p3d": {
              "x": 6.9817,
              "y": 1.2703,
              "z": 16.7546
            }
          },
          {
            "elSymbol": "H",
            "p3d": {
              "x": 9.0105,
              "y": -1.7019,
              "z": 16.1896
            }
          },
          {
            "elSymbol": "H",
            "p3d": {
              "x": 8.4263,
              "y": -1.7167,
              "z": 18.6441
            }
          },
          {
            "elSymbol": "H",
            "p3d": {
              "x": 10.2549,
              "y": 0.9263,
              "z": 17.976
            }
          },
          {
            "elSymbol": "H",
            "p3d": {
              "x": 8.3046,
              "y": 1.9671,
              "z": 19.8829
            }
          },
          {
            "elSymbol": "H",
            "p3d": {
              "x": 6.5618,
              "y": 0.5532,
              "z": 19.2885
            }
          },
          {
            "elSymbol": "H",
            "p3d": {
              "x": 7.1262,
              "y": -0.3475,
              "z": 15.7389
            }
          },
          {
            "elSymbol": "H",
            "p3d": {
              "x": 10.5271,
              "y": -1.1697,
              "z": 17.0978
            }
          },
          {
            "elSymbol": "H",
            "p3d": {
              "x": 6.9137,
              "y": -1.2746,
              "z": 17.8773
            }
          },
          {
            "elSymbol": "H",
            "p3d": {
              "x": 9.6349,
              "y": 2.045,
              "z": 17.6739
            }
          },
          {
            "elSymbol": "H",
            "p3d": {
              "x": 9.3306,
              "y": 0.6014,
              "z": 20.0507
            }
          },
          {
            "elSymbol": "H",
            "p3d": {
              "x": 7.4379,
              "y": -0.5103,
              "z": 20.3832
            }
          }
        ],
        "bonds": [
          {
            "atomIds": [
              1,
              0
            ],
            "bo": "SINGLE"
          },
          {
            "atomIds": [
              2,
              0
            ],
            "bo": "SINGLE"
          },
          {
            "atomIds": [
              3,
              1
            ],
            "bo": "SINGLE"
          },
          {
            "atomIds": [
              4,
              2
            ],
            "bo": "SINGLE"
          },
          {
            "atomIds": [
              4,
              5
            ],
            "bo": "SINGLE"
          },
          {
            "atomIds": [
              5,
              3
            ],
            "bo": "SINGLE"
          },
          {
            "atomIds": [
              6,
              5
            ],
            "bo": "SINGLE"
          },
          {
            "atomIds": [
              7,
              5
            ],
            "bo": "SINGLE"
          },
          {
            "atomIds": [
              8,
              7
            ],
            "bo": "SINGLE"
          },
          {
            "atomIds": [
              8,
              9
            ],
            "bo": "SINGLE"
          },
          {
            "atomIds": [
              9,
              6
            ],
            "bo": "SINGLE"
          },
          {
            "atomIds": [
              10,
              3
            ],
            "bo": "SINGLE"
          },
          {
            "atomIds": [
              11,
              4
            ],
            "bo": "SINGLE"
          },
          {
            "atomIds": [
              12,
              6
            ],
            "bo": "SINGLE"
          },
          {
            "atomIds": [
              13,
              7
            ],
            "bo": "SINGLE"
          },
          {
            "atomIds": [
              14,
              8
            ],
            "bo": "SINGLE"
          },
          {
            "atomIds": [
              15,
              9
            ],
            "bo": "SINGLE"
          },
          {
            "atomIds": [
              16,
              3
            ],
            "bo": "SINGLE"
          },
          {
            "atomIds": [
              17,
              4
            ],
            "bo": "SINGLE"
          },
          {
            "atomIds": [
              18,
              6
            ],
            "bo": "SINGLE"
          },
          {
            "atomIds": [
              19,
              7
            ],
            "bo": "SINGLE"
          },
          {
            "atomIds": [
              20,
              8
            ],
            "bo": "SINGLE"
          },
          {
            "atomIds": [
              21,
              9
            ],
            "bo": "SINGLE"
          }
        ]
      },
      "vertexId": 120,
      "buildingBlockId": 59,
      "buildingBlockType": "FRAGMENT",
      "isRCV": false,
      "properties": {
        "ATTACHMENT_POINTS": "1#LPhosphoniteSubR:0:SINGLE:8.5833%-0.8556%13.5393,MPhosphonite:1:SINGLE:10.4864%1.7322%12.8008 "
      },
      "uniquefyingPropertyKeys": [],
      "allowedMutationTypes": [
        "DELETE",
        "EXTEND",
        "CHANGEBRANCH",
        "CHANGELINK",
        "ADDLINK",
        "DELETELINK",
        "DELETECHAIN"
      ],
      "vertexType": "MolecularFragment"
    },
    {
      "lstAPs": [
        {
          "id": 215067,
          "atomPositionNumber": 0,
          "atomPositionNumberInMol": 47,
          "apClass": {
            "rule": "Xlig",
            "subClass": 1,
            "bndTyp": "SINGLE"
          },
          "dirVec": {
            "x": -0.102,
            "y": 0.0185,
            "z": -1.0265
          }
        }
      ],
      "lstSymAPs": [],
      "mol": {
        "atoms": [
          {
            "elSymbol": "S",
            "p3d": {
              "x": -0.3267,
              "y": 2.3403,
              "z": -1.0022
            }
          },
          {
            "elSymbol": "C",
            "p3d": {
              "x": -0.626,
              "y": 2.4866,
              "z": 0.7805
            }
          },
          {
            "elSymbol": "H",
            "p3d": {
              "x": 0.1766,
              "y": 3.089,
              "z": 1.2414
            }
          },
          {
            "elSymbol": "H",
            "p3d": {
              "x": -0.651,
              "y": 1.5065,
              "z": 1.2643
            }
          },
          {
            "elSymbol": "H",
            "p3d": {
              "x": -1.5658,
              "y": 2.981,
              "z": 0.9515
            }
          }
        ],
        "bonds": [
          {
            "atomIds": [
              1,
              2
            ],
            "bo": "SINGLE"
          },
          {
            "atomIds": [
              1,
              3
            ],
            "bo": "SINGLE"
          },
          {
            "atomIds": [
              1,
              4
            ],
            "bo": "SINGLE"
          },
          {
            "atomIds": [
              0,
              1
            ],
            "bo": "SINGLE"
          }
        ]
      },
      "vertexId": 85,
      "buildingBlockId": 63,
      "buildingBlockType": "FRAGMENT",
      "isRCV": false,
      "properties": {
        "ATTACHMENT_POINTS": "1#Xlig:1:SINGLE:-0.1020%0.0185%-1.0265 "
      },
      "uniquefyingPropertyKeys": [],
      "allowedMutationTypes": [
        "DELETE",
        "EXTEND",
        "CHANGEBRANCH",
        "CHANGELINK",
        "ADDLINK",
        "DELETELINK",
        "DELETECHAIN"
      ],
      "vertexType": "MolecularFragment"
    },
    {
      "lstAPs": [
        {
          "id": 215092,
          "atomPositionNumber": 2,
          "atomPositionNumberInMol": 32,
          "apClass": {
            "rule": "SubArM",
            "subClass": 1,
            "bndTyp": "SINGLE"
          },
          "dirVec": {
            "x": 0.2839,
            "y": 0.3907,
            "z": -0.6271
          }
        }
      ],
      "lstSymAPs": [],
      "mol": {
        "atoms": [
          {
            "elSymbol": "H",
            "p3d": {
              "x": 1.8079,
              "y": 2.6521,
              "z": -0.6457
            }
          },
          {
            "elSymbol": "C",
            "p3d": {
              "x": 2.3292,
              "y": 1.8028,
              "z": -1.1346
            }
          },
          {
            "elSymbol": "C",
            "p3d": {
              "x": 1.6928,
              "y": 0.5701,
              "z": -1.2214
            }
          },
          {
            "elSymbol": "C",
            "p3d": {
              "x": 4.26,
              "y": 0.9161,
              "z": -2.2564
            }
          },
          {
            "elSymbol": "C",
            "p3d": {
              "x": 2.3547,
              "y": -0.5116,
              "z": -1.8205
            }
          },
          {
            "elSymbol": "C",
            "p3d": {
              "x": 3.6118,
              "y": 1.9867,
              "z": -1.654
            }
          },
          {
            "elSymbol": "C",
            "p3d": {
              "x": 3.6519,
              "y": -0.333,
              "z": -2.339
            }
          },
          {
            "elSymbol": "C",
            "p3d": {
              "x": 1.7318,
              "y": -1.7781,
              "z": -1.8989
            }
          },
          {
            "elSymbol": "H",
            "p3d": {
              "x": 4.0936,
              "y": 2.9609,
              "z": -1.5808
            }
          },
          {
            "elSymbol": "H",
            "p3d": {
              "x": 5.3077,
              "y": -1.3005,
              "z": -3.3639
            }
          },
          {
            "elSymbol": "H",
            "p3d": {
              "x": 5.2705,
              "y": 1.0583,
              "z": -2.6578
            }
          },
          {
            "elSymbol": "C",
            "p3d": {
              "x": 2.3998,
              "y": -2.8526,
              "z": -2.5007
            }
          },
          {
            "elSymbol": "H",
            "p3d": {
              "x": 0.724,
              "y": -1.9306,
              "z": -1.4908
            }
          },
          {
            "elSymbol": "H",
            "p3d": {
              "x": 1.9155,
              "y": -3.8304,
              "z": -2.576
            }
          },
          {
            "elSymbol": "C",
            "p3d": {
              "x": 3.684,
              "y": -2.6697,
              "z": -3.0355
            }
          },
          {
            "elSymbol": "H",
            "p3d": {
              "x": 4.2028,
              "y": -3.5195,
              "z": -3.4955
            }
          },
          {
            "elSymbol": "C",
            "p3d": {
              "x": 4.3092,
              "y": -1.4197,
              "z": -2.9387
            }
          }
        ],
        "bonds": [
          {
            "atomIds": [
              0,
              1
            ],
            "bo": "SINGLE"
          },
          {
            "atomIds": [
              1,
              2
            ],
            "bo": "SINGLE"
          },
          {
            "atomIds": [
              1,
              5
            ],
            "bo": "DOUBLE"
          },
          {
            "atomIds": [
              2,
              4
            ],
            "bo": "DOUBLE"
          },
          {
            "atomIds": [
              4,
              6
            ],
            "bo": "SINGLE"
          },
          {
            "atomIds": [
              3,
              5
            ],
            "bo": "SINGLE"
          },
          {
            "atomIds": [
              3,
              6
            ],
            "bo": "DOUBLE"
          },
          {
            "atomIds": [
              7,
              4
            ],
            "bo": "SINGLE"
          },
          {
            "atomIds": [
              6,
              16
            ],
            "bo": "SINGLE"
          },
          {
            "atomIds": [
              7,
              11
            ],
            "bo": "DOUBLE"
          },
          {
            "atomIds": [
              11,
              14
            ],
            "bo": "SINGLE"
          },
          {
            "atomIds": [
              14,
              16
            ],
            "bo": "DOUBLE"
          },
          {
            "atomIds": [
              3,
              10
            ],
            "bo": "SINGLE"
          },
          {
            "atomIds": [
              5,
              8
            ],
            "bo": "SINGLE"
          },
          {
            "atomIds": [
              7,
              12
            ],
            "bo": "SINGLE"
          },
          {
            "atomIds": [
              9,
              16
            ],
            "bo": "SINGLE"
          },
          {
            "atomIds": [
              14,
              15
            ],
            "bo": "SINGLE"
          },
          {
            "atomIds": [
              11,
              13
            ],
            "bo": "SINGLE"
          }
        ]
      },
      "vertexId": 164441,
      "buildingBlockId": 38,
      "buildingBlockType": "FRAGMENT",
      "isRCV": false,
      "properties": {
        "ATTACHMENT_POINTS": "3#SubArM:1:SINGLE:0.2839%0.3907%-0.6271 "
      },
      "uniquefyingPropertyKeys": [],
      "allowedMutationTypes": [
        "DELETE",
        "EXTEND",
        "CHANGEBRANCH",
        "CHANGELINK",
        "ADDLINK",
        "DELETELINK",
        "DELETECHAIN"
      ],
      "vertexType": "MolecularFragment"
    }
  ],
  "gEdges": [
    {
      "srcAPID": 215061,
      "trgAPID": 215064,
      "bondType": "SINGLE"
    },
    {
      "srcAPID": 215063,
      "trgAPID": 215066,
      "bondType": "SINGLE"
    },
    {
      "srcAPID": 215062,
      "trgAPID": 215067,
      "bondType": "SINGLE"
    },
    {
      "srcAPID": 215065,
      "trgAPID": 215092,
      "bondType": "SINGLE"
    }
  ],
  "gRings": [],
  "symVertices": []
}

> <SMILES>
[Pt](C#O)(C#N)([P]1(OC(C2(C(O1)([H])[H])C(C(C(C2([H])[H])([H])[H])([H])[H])([H])[H])([H])[H])C=3C([H])=C(C(=C4C3C(=C(C(=C4[H])[H])[H])[H])[H])[H])SC([H])([H])[H]

$$$$
