M00005966
  CDK     04222210513D

 36 36  0  0  0  0  0  0  0  0999 V2000
    1.8901   -0.1890    0.3464 Pt  0  0  0  0  0  0  0  0  0  0  0  0
    3.8093   -0.2736    0.4547 C   0  0  0  0  0  0  0  0  0  0  0  0
    4.9520   -0.2810    0.5143 O   0  0  0  0  0  0  0  0  0  0  0  0
    1.6517   -2.1769    0.2305 C   0  0  0  0  0  0  0  0  0  0  0  0
    1.5031   -3.3201    0.1474 N   0  0  0  0  0  0  0  0  0  0  0  0
   -0.8445    0.2897    1.3487 N   0  0  0  0  0  0  0  0  0  0  0  0
   -0.7450   -0.1218   -0.9870 N   0  0  0  0  0  0  0  0  0  0  0  0
   -0.1347    0.0164    0.2227 C   0  0  0  0  0  0  0  0  0  0  0  0
   -2.3287    0.4085    1.3337 C   0  0  0  0  0  0  0  0  0  0  0  0
   -2.6535    1.1188    2.1264 H   0  0  0  0  0  0  0  0  0  0  0  0
   -2.7724   -0.5847    1.5788 H   0  0  0  0  0  0  0  0  0  0  0  0
   -2.8038    0.8930   -0.0426 C   0  0  0  0  0  0  0  0  0  0  0  0
   -2.5032    1.9514   -0.1958 H   0  0  0  0  0  0  0  0  0  0  0  0
   -3.9098    0.8811   -0.0902 H   0  0  0  0  0  0  0  0  0  0  0  0
   -2.2187    0.0124   -1.1542 C   0  0  0  0  0  0  0  0  0  0  0  0
   -2.6784   -1.0036   -1.1335 H   0  0  0  0  0  0  0  0  0  0  0  0
   -2.4374    0.4506   -2.1534 H   0  0  0  0  0  0  0  0  0  0  0  0
    0.4606   -0.8338    3.1584 C   0  0  0  0  0  0  0  0  0  0  0  0
   -0.1272    0.4768    2.6466 C   0  0  0  0  0  0  0  0  0  0  0  0
    1.3276   -1.1636    2.5569 H   0  0  0  0  0  0  0  0  0  0  0  0
    0.8118   -0.7270    4.1930 H   0  0  0  0  0  0  0  0  0  0  0  0
   -0.2668   -1.6561    3.1430 H   0  0  0  0  0  0  0  0  0  0  0  0
   -0.8378    0.9034    3.3884 H   0  0  0  0  0  0  0  0  0  0  0  0
    0.6820    1.2408    2.5039 H   0  0  0  0  0  0  0  0  0  0  0  0
   -0.2429   -1.8285   -2.7374 C   0  0  0  0  0  0  0  0  0  0  0  0
    0.0682   -0.4371   -2.2000 C   0  0  0  0  0  0  0  0  0  0  0  0
   -1.2733   -1.9284   -3.0922 H   0  0  0  0  0  0  0  0  0  0  0  0
    0.4202   -2.0801   -3.5758 H   0  0  0  0  0  0  0  0  0  0  0  0
   -0.0831   -2.6068   -1.9718 H   0  0  0  0  0  0  0  0  0  0  0  0
    1.1602   -0.3609   -1.9396 H   0  0  0  0  0  0  0  0  0  0  0  0
   -0.1350    0.3409   -2.9709 H   0  0  0  0  0  0  0  0  0  0  0  0
    2.2469    2.1057    0.4844 S   0  0  0  0  0  0  0  0  0  0  0  0
    2.0317    2.5398   -1.2644 C   0  0  0  0  0  0  0  0  0  0  0  0
    0.9792    2.4792   -1.5543 H   0  0  0  0  0  0  0  0  0  0  0  0
    2.6296    1.8907   -1.9101 H   0  0  0  0  0  0  0  0  0  0  0  0
    2.3720    3.5737   -1.4053 H   0  0  0  0  0  0  0  0  0  0  0  0
  2  3  3  0  0  0  0
  1  2  1  0  0  0  0
  4  5  3  0  0  0  0
  1  4  1  0  0  0  0
  6  8  1  0  0  0  0
  7  8  1  0  0  0  0
  9  6  1  0  0  0  0
 10  9  1  0  0  0  0
 11  9  1  0  0  0  0
 12  9  1  0  0  0  0
 13 12  1  0  0  0  0
 14 12  1  0  0  0  0
 15  7  1  0  0  0  0
 16 15  1  0  0  0  0
 17 15  1  0  0  0  0
 12 15  1  0  0  0  0
  1  8  1  0  0  0  0
 18 19  1  0  0  0  0
 18 20  1  0  0  0  0
 18 21  1  0  0  0  0
 18 22  1  0  0  0  0
 19 23  1  0  0  0  0
 19 24  1  0  0  0  0
  6 19  1  0  0  0  0
 25 26  1  0  0  0  0
 25 27  1  0  0  0  0
 25 28  1  0  0  0  0
 25 29  1  0  0  0  0
 26 30  1  0  0  0  0
 26 31  1  0  0  0  0
  7 26  1  0  0  0  0
 33 34  1  0  0  0  0
 33 35  1  0  0  0  0
 33 36  1  0  0  0  0
 32 33  1  0  0  0  0
  1 32  1  0  0  0  0
M  END
> <PM6_ENERGY>
4.028

> <UID>
SAPZNFKHLCDWDZ-ZMKCJZRUNA-M

> <FITNESS>
1.14428

> <GCODE>
6796

> <GraphENC>
6796 72_1_0,81_66_1,91_13_1,85_64_1,135226_32_1,135253_32_1, 72_0_81_0_SINGLE_Xlig:0_Xlig:1,72_2_91_2_SINGLE_scaff:0_M6HPyrimidinylidene:1,72_1_85_0_SINGLE_Xlig:0_Xlig:1,91_0_135226_0_SINGLE_L6HPyrimidinylideneSubN:0_SubRS:1,91_1_135253_0_SINGLE_L6HPyrimidinylideneSubN:0_SubRS:1, SymmetricSet [symIds=[135226, 135253]] 

> <GraphJson>
{
  "graphId": 6796,
  "gVertices": [
    {
      "lstAPs": [
        {
          "id": 177232,
          "atomPositionNumber": 0,
          "atomPositionNumberInMol": 0,
          "apClass": {
            "rule": "Xlig",
            "subClass": 0,
            "bndTyp": "SINGLE"
          },
          "dirVec": {
            "x": -2.3339,
            "y": -0.0087,
            "z": 0.8172
          }
        },
        {
          "id": 177233,
          "atomPositionNumber": 0,
          "atomPositionNumberInMol": 0,
          "apClass": {
            "rule": "Xlig",
            "subClass": 0,
            "bndTyp": "SINGLE"
          },
          "dirVec": {
            "x": 2.336,
            "y": -5.0E-4,
            "z": 0.829
          }
        },
        {
          "id": 177234,
          "atomPositionNumber": 0,
          "atomPositionNumberInMol": 0,
          "apClass": {
            "rule": "scaff",
            "subClass": 0,
            "bndTyp": "SINGLE"
          },
          "dirVec": {
            "x": -0.0095,
            "y": 0.0046,
            "z": -1.7113
          }
        }
      ],
      "lstSymAPs": [
        {
          "symIds": [
            0,
            1
          ]
        }
      ],
      "mol": {
        "atoms": [
          {
            "elSymbol": "Pt",
            "p3d": {
              "x": -0.0098,
              "y": 0.0049,
              "z": 0.6289
            }
          },
          {
            "elSymbol": "C",
            "p3d": {
              "x": -6.0E-4,
              "y": 0.0016,
              "z": 2.5609
            }
          },
          {
            "elSymbol": "O",
            "p3d": {
              "x": 0.0025,
              "y": -0.0041,
              "z": 3.6974
            }
          },
          {
            "elSymbol": "Du",
            "p3d": {
              "x": -0.007,
              "y": 1.0013,
              "z": 0.6372
            }
          },
          {
            "elSymbol": "Du",
            "p3d": {
              "x": -0.0014,
              "y": 0.9902,
              "z": 2.5698
            }
          }
        ],
        "bonds": [
          {
            "atomIds": [
              1,
              2
            ],
            "bo": "TRIPLE"
          },
          {
            "atomIds": [
              0,
              1
            ],
            "bo": "SINGLE"
          },
          {
            "atomIds": [
              3,
              0
            ],
            "bo": "SINGLE"
          },
          {
            "atomIds": [
              4,
              1
            ],
            "bo": "SINGLE"
          }
        ]
      },
      "vertexId": 72,
      "buildingBlockId": 0,
      "buildingBlockType": "SCAFFOLD",
      "isRCV": false,
      "properties": {
        "ATTACHMENT_POINTS": "1#Xlig:0:SINGLE:-2.3339%-0.0087%0.8172,Xlig:0:SINGLE:2.3360%-0.0005%0.8290,scaff:0:SINGLE:-0.0095%0.0046%-1.7113 "
      },
      "uniquefyingPropertyKeys": [],
      "allowedMutationTypes": [
        "DELETE",
        "EXTEND",
        "CHANGEBRANCH",
        "CHANGELINK",
        "ADDLINK",
        "DELETELINK",
        "DELETECHAIN"
      ],
      "vertexType": "MolecularFragment"
    },
    {
      "lstAPs": [
        {
          "id": 177235,
          "atomPositionNumber": 0,
          "atomPositionNumberInMol": 5,
          "apClass": {
            "rule": "Xlig",
            "subClass": 1,
            "bndTyp": "SINGLE"
          },
          "dirVec": {
            "x": 0.0192,
            "y": -0.0048,
            "z": -0.5645
          }
        }
      ],
      "lstSymAPs": [],
      "mol": {
        "atoms": [
          {
            "elSymbol": "C",
            "p3d": {
              "x": -1.967,
              "y": -0.0075,
              "z": -0.4937
            }
          },
          {
            "elSymbol": "N",
            "p3d": {
              "x": -3.1263,
              "y": -0.0054,
              "z": -0.4354
            }
          },
          {
            "elSymbol": "Du",
            "p3d": {
              "x": -1.9744,
              "y": 0.9926,
              "z": -0.5036
            }
          }
        ],
        "bonds": [
          {
            "atomIds": [
              0,
              1
            ],
            "bo": "TRIPLE"
          },
          {
            "atomIds": [
              2,
              0
            ],
            "bo": "SINGLE"
          }
        ]
      },
      "vertexId": 81,
      "buildingBlockId": 65,
      "buildingBlockType": "FRAGMENT",
      "isRCV": false,
      "properties": {
        "ATTACHMENT_POINTS": "1#Xlig:1:SINGLE:0.0192%-0.0048%-0.5645 "
      },
      "uniquefyingPropertyKeys": [],
      "allowedMutationTypes": [
        "DELETE",
        "EXTEND",
        "CHANGEBRANCH",
        "CHANGELINK",
        "ADDLINK",
        "DELETELINK",
        "DELETECHAIN"
      ],
      "vertexType": "MolecularFragment"
    },
    {
      "lstAPs": [
        {
          "id": 177236,
          "atomPositionNumber": 0,
          "atomPositionNumberInMol": 8,
          "apClass": {
            "rule": "L6HPyrimidinylideneSubN",
            "subClass": 0,
            "bndTyp": "SINGLE"
          },
          "dirVec": {
            "x": 3.6986,
            "y": 10.1321,
            "z": 12.1775
          }
        },
        {
          "id": 177237,
          "atomPositionNumber": 1,
          "atomPositionNumberInMol": 9,
          "apClass": {
            "rule": "L6HPyrimidinylideneSubN",
            "subClass": 0,
            "bndTyp": "SINGLE"
          },
          "dirVec": {
            "x": 4.7983,
            "y": 14.0099,
            "z": 14.7771
          }
        },
        {
          "id": 177238,
          "atomPositionNumber": 2,
          "atomPositionNumberInMol": 10,
          "apClass": {
            "rule": "M6HPyrimidinylidene",
            "subClass": 1,
            "bndTyp": "SINGLE"
          },
          "dirVec": {
            "x": 6.012,
            "y": 12.0516,
            "z": 12.7188
          }
        }
      ],
      "lstSymAPs": [
        {
          "symIds": [
            0,
            1
          ]
        }
      ],
      "mol": {
        "atoms": [
          {
            "elSymbol": "N",
            "p3d": {
              "x": 3.3266,
              "y": 11.1346,
              "z": 13.1445
            }
          },
          {
            "elSymbol": "N",
            "p3d": {
              "x": 3.8396,
              "y": 13.0125,
              "z": 14.3399
            }
          },
          {
            "elSymbol": "C",
            "p3d": {
              "x": 4.223,
              "y": 12.0593,
              "z": 13.4858
            }
          },
          {
            "elSymbol": "C",
            "p3d": {
              "x": 1.9257,
              "y": 11.1023,
              "z": 13.6161
            }
          },
          {
            "elSymbol": "H",
            "p3d": {
              "x": 1.5873,
              "y": 10.0735,
              "z": 13.6893
            }
          },
          {
            "elSymbol": "H",
            "p3d": {
              "x": 1.2755,
              "y": 11.6279,
              "z": 12.9065
            }
          },
          {
            "elSymbol": "C",
            "p3d": {
              "x": 1.8556,
              "y": 11.7608,
              "z": 14.9634
            }
          },
          {
            "elSymbol": "H",
            "p3d": {
              "x": 2.3477,
              "y": 11.1349,
              "z": 15.7024
            }
          },
          {
            "elSymbol": "H",
            "p3d": {
              "x": 0.8059,
              "y": 11.86,
              "z": 15.2619
            }
          },
          {
            "elSymbol": "C",
            "p3d": {
              "x": 2.4969,
              "y": 13.1208,
              "z": 14.9163
            }
          },
          {
            "elSymbol": "H",
            "p3d": {
              "x": 1.8796,
              "y": 13.7836,
              "z": 14.3197
            }
          },
          {
            "elSymbol": "H",
            "p3d": {
              "x": 2.5543,
              "y": 13.5401,
              "z": 15.9154
            }
          }
        ],
        "bonds": [
          {
            "atomIds": [
              0,
              2
            ],
            "bo": "SINGLE"
          },
          {
            "atomIds": [
              1,
              2
            ],
            "bo": "SINGLE"
          },
          {
            "atomIds": [
              3,
              0
            ],
            "bo": "SINGLE"
          },
          {
            "atomIds": [
              4,
              3
            ],
            "bo": "SINGLE"
          },
          {
            "atomIds": [
              5,
              3
            ],
            "bo": "SINGLE"
          },
          {
            "atomIds": [
              6,
              3
            ],
            "bo": "SINGLE"
          },
          {
            "atomIds": [
              7,
              6
            ],
            "bo": "SINGLE"
          },
          {
            "atomIds": [
              8,
              6
            ],
            "bo": "SINGLE"
          },
          {
            "atomIds": [
              9,
              1
            ],
            "bo": "SINGLE"
          },
          {
            "atomIds": [
              10,
              9
            ],
            "bo": "SINGLE"
          },
          {
            "atomIds": [
              11,
              9
            ],
            "bo": "SINGLE"
          },
          {
            "atomIds": [
              6,
              9
            ],
            "bo": "SINGLE"
          }
        ]
      },
      "vertexId": 91,
      "buildingBlockId": 12,
      "buildingBlockType": "FRAGMENT",
      "isRCV": false,
      "properties": {
        "ATTACHMENT_POINTS": "1#L6HPyrimidinylideneSubN:0:SINGLE:3.6986%10.1321%12.1775 2#L6HPyrimidinylideneSubN:0:SINGLE:4.7983%14.0099%14.7771 3#M6HPyrimidinylidene:1:SINGLE:6.0120%12.0516%12.7188 "
      },
      "uniquefyingPropertyKeys": [],
      "allowedMutationTypes": [
        "DELETE",
        "EXTEND",
        "CHANGEBRANCH",
        "CHANGELINK",
        "ADDLINK",
        "DELETELINK",
        "DELETECHAIN"
      ],
      "vertexType": "MolecularFragment"
    },
    {
      "lstAPs": [
        {
          "id": 177239,
          "atomPositionNumber": 0,
          "atomPositionNumberInMol": 34,
          "apClass": {
            "rule": "Xlig",
            "subClass": 1,
            "bndTyp": "SINGLE"
          },
          "dirVec": {
            "x": -0.102,
            "y": 0.0185,
            "z": -1.0265
          }
        }
      ],
      "lstSymAPs": [],
      "mol": {
        "atoms": [
          {
            "elSymbol": "S",
            "p3d": {
              "x": -0.3267,
              "y": 2.3403,
              "z": -1.0022
            }
          },
          {
            "elSymbol": "C",
            "p3d": {
              "x": -0.626,
              "y": 2.4866,
              "z": 0.7805
            }
          },
          {
            "elSymbol": "H",
            "p3d": {
              "x": 0.1766,
              "y": 3.089,
              "z": 1.2414
            }
          },
          {
            "elSymbol": "H",
            "p3d": {
              "x": -0.651,
              "y": 1.5065,
              "z": 1.2643
            }
          },
          {
            "elSymbol": "H",
            "p3d": {
              "x": -1.5658,
              "y": 2.981,
              "z": 0.9515
            }
          }
        ],
        "bonds": [
          {
            "atomIds": [
              1,
              2
            ],
            "bo": "SINGLE"
          },
          {
            "atomIds": [
              1,
              3
            ],
            "bo": "SINGLE"
          },
          {
            "atomIds": [
              1,
              4
            ],
            "bo": "SINGLE"
          },
          {
            "atomIds": [
              0,
              1
            ],
            "bo": "SINGLE"
          }
        ]
      },
      "vertexId": 85,
      "buildingBlockId": 63,
      "buildingBlockType": "FRAGMENT",
      "isRCV": false,
      "properties": {
        "ATTACHMENT_POINTS": "1#Xlig:1:SINGLE:-0.1020%0.0185%-1.0265 "
      },
      "uniquefyingPropertyKeys": [],
      "allowedMutationTypes": [
        "DELETE",
        "EXTEND",
        "CHANGEBRANCH",
        "CHANGELINK",
        "ADDLINK",
        "DELETELINK",
        "DELETECHAIN"
      ],
      "vertexType": "MolecularFragment"
    },
    {
      "lstAPs": [
        {
          "id": 177272,
          "atomPositionNumber": 1,
          "atomPositionNumberInMol": 21,
          "apClass": {
            "rule": "SubRS",
            "subClass": 1,
            "bndTyp": "SINGLE"
          },
          "dirVec": {
            "x": 0.2985,
            "y": 0.384,
            "z": -0.6258
          }
        }
      ],
      "lstSymAPs": [],
      "mol": {
        "atoms": [
          {
            "elSymbol": "C",
            "p3d": {
              "x": -1.0244,
              "y": -0.2225,
              "z": 1.3991
            }
          },
          {
            "elSymbol": "C",
            "p3d": {
              "x": 0.3973,
              "y": -0.042,
              "z": 0.8195
            }
          },
          {
            "elSymbol": "H",
            "p3d": {
              "x": -1.5635,
              "y": -0.9908,
              "z": 0.8263
            }
          },
          {
            "elSymbol": "H",
            "p3d": {
              "x": -0.941,
              "y": -0.535,
              "z": 2.446
            }
          },
          {
            "elSymbol": "H",
            "p3d": {
              "x": -1.5586,
              "y": 0.7335,
              "z": 1.3382
            }
          },
          {
            "elSymbol": "H",
            "p3d": {
              "x": 0.9335,
              "y": 0.7221,
              "z": 1.4011
            }
          },
          {
            "elSymbol": "H",
            "p3d": {
              "x": 0.927,
              "y": -1.0102,
              "z": 0.9001
            }
          }
        ],
        "bonds": [
          {
            "atomIds": [
              0,
              1
            ],
            "bo": "SINGLE"
          },
          {
            "atomIds": [
              0,
              2
            ],
            "bo": "SINGLE"
          },
          {
            "atomIds": [
              0,
              3
            ],
            "bo": "SINGLE"
          },
          {
            "atomIds": [
              0,
              4
            ],
            "bo": "SINGLE"
          },
          {
            "atomIds": [
              1,
              5
            ],
            "bo": "SINGLE"
          },
          {
            "atomIds": [
              1,
              6
            ],
            "bo": "SINGLE"
          }
        ]
      },
      "vertexId": 135226,
      "buildingBlockId": 31,
      "buildingBlockType": "FRAGMENT",
      "isRCV": false,
      "properties": {
        "ATTACHMENT_POINTS": "2#SubRS:1:SINGLE:0.2985%0.3840%-0.6258 "
      },
      "uniquefyingPropertyKeys": [],
      "allowedMutationTypes": [
        "DELETE",
        "EXTEND",
        "CHANGEBRANCH",
        "CHANGELINK",
        "ADDLINK",
        "DELETELINK",
        "DELETECHAIN"
      ],
      "vertexType": "MolecularFragment"
    },
    {
      "lstAPs": [
        {
          "id": 177273,
          "atomPositionNumber": 1,
          "atomPositionNumberInMol": 28,
          "apClass": {
            "rule": "SubRS",
            "subClass": 1,
            "bndTyp": "SINGLE"
          },
          "dirVec": {
            "x": 0.2985,
            "y": 0.384,
            "z": -0.6258
          }
        }
      ],
      "lstSymAPs": [],
      "mol": {
        "atoms": [
          {
            "elSymbol": "C",
            "p3d": {
              "x": -1.0244,
              "y": -0.2225,
              "z": 1.3991
            }
          },
          {
            "elSymbol": "C",
            "p3d": {
              "x": 0.3973,
              "y": -0.042,
              "z": 0.8195
            }
          },
          {
            "elSymbol": "H",
            "p3d": {
              "x": -1.5635,
              "y": -0.9908,
              "z": 0.8263
            }
          },
          {
            "elSymbol": "H",
            "p3d": {
              "x": -0.941,
              "y": -0.535,
              "z": 2.446
            }
          },
          {
            "elSymbol": "H",
            "p3d": {
              "x": -1.5586,
              "y": 0.7335,
              "z": 1.3382
            }
          },
          {
            "elSymbol": "H",
            "p3d": {
              "x": 0.9335,
              "y": 0.7221,
              "z": 1.4011
            }
          },
          {
            "elSymbol": "H",
            "p3d": {
              "x": 0.927,
              "y": -1.0102,
              "z": 0.9001
            }
          }
        ],
        "bonds": [
          {
            "atomIds": [
              0,
              1
            ],
            "bo": "SINGLE"
          },
          {
            "atomIds": [
              0,
              2
            ],
            "bo": "SINGLE"
          },
          {
            "atomIds": [
              0,
              3
            ],
            "bo": "SINGLE"
          },
          {
            "atomIds": [
              0,
              4
            ],
            "bo": "SINGLE"
          },
          {
            "atomIds": [
              1,
              5
            ],
            "bo": "SINGLE"
          },
          {
            "atomIds": [
              1,
              6
            ],
            "bo": "SINGLE"
          }
        ]
      },
      "vertexId": 135253,
      "buildingBlockId": 31,
      "buildingBlockType": "FRAGMENT",
      "isRCV": false,
      "properties": {
        "ATTACHMENT_POINTS": "2#SubRS:1:SINGLE:0.2985%0.3840%-0.6258 "
      },
      "uniquefyingPropertyKeys": [],
      "allowedMutationTypes": [
        "DELETE",
        "EXTEND",
        "CHANGEBRANCH",
        "CHANGELINK",
        "ADDLINK",
        "DELETELINK",
        "DELETECHAIN"
      ],
      "vertexType": "MolecularFragment"
    }
  ],
  "gEdges": [
    {
      "srcAPID": 177232,
      "trgAPID": 177235,
      "bondType": "SINGLE"
    },
    {
      "srcAPID": 177234,
      "trgAPID": 177238,
      "bondType": "SINGLE"
    },
    {
      "srcAPID": 177233,
      "trgAPID": 177239,
      "bondType": "SINGLE"
    },
    {
      "srcAPID": 177236,
      "trgAPID": 177272,
      "bondType": "SINGLE"
    },
    {
      "srcAPID": 177237,
      "trgAPID": 177273,
      "bondType": "SINGLE"
    }
  ],
  "gRings": [],
  "symVertices": [
    {
      "symIds": [
        135226,
        135253
      ]
    }
  ]
}

> <SMILES>
[Pt](C#O)(C#N)([C]1N(C([H])([H])C([H])([H])C(N1C(C([H])([H])[H])([H])[H])([H])[H])C(C([H])([H])[H])([H])[H])SC([H])([H])[H]

$$$$
