M00020213
  CDK     04222215553D

 50 51  0  0  0  0  0  0  0  0999 V2000
   -2.3420    0.0701    0.1725 Pt  0  0  0  0  0  0  0  0  0  0  0  0
   -4.2710    0.3439    0.3527 C   0  0  0  0  0  0  0  0  0  0  0  0
   -5.3959    0.5374    0.4272 O   0  0  0  0  0  0  0  0  0  0  0  0
   -2.8140    2.3233   -0.0315 S   0  0  0  0  0  0  0  0  0  0  0  0
   -2.5540    2.4901   -1.8177 C   0  0  0  0  0  0  0  0  0  0  0  0
   -3.2660    3.2180   -2.2220 H   0  0  0  0  0  0  0  0  0  0  0  0
   -2.6993    1.5317   -2.3289 H   0  0  0  0  0  0  0  0  0  0  0  0
   -1.5349    2.8456   -2.0177 H   0  0  0  0  0  0  0  0  0  0  0  0
   -0.0931   -0.1130   -0.1237 P   0  0  0  0  0  0  0  0  0  0  0  0
    0.6265    1.4780   -0.7435 C   0  0  0  0  0  0  0  0  0  0  0  0
    1.5954    3.9967   -1.4432 C   0  0  0  0  0  0  0  0  0  0  0  0
    1.2506    1.6454   -1.9864 C   0  0  0  0  0  0  0  0  0  0  0  0
    0.4803    2.5530    0.1429 C   0  0  0  0  0  0  0  0  0  0  0  0
    0.9669    3.8145   -0.2061 C   0  0  0  0  0  0  0  0  0  0  0  0
    1.7363    2.9259   -2.3236 C   0  0  0  0  0  0  0  0  0  0  0  0
   -0.0149    2.4399    1.1138 H   0  0  0  0  0  0  0  0  0  0  0  0
    0.8491    4.6527    0.4777 H   0  0  0  0  0  0  0  0  0  0  0  0
    2.2261    3.0791   -3.2832 H   0  0  0  0  0  0  0  0  0  0  0  0
    1.9747    4.9810   -1.7192 H   0  0  0  0  0  0  0  0  0  0  0  0
    1.4300    0.5407   -2.9736 C   0  0  0  0  0  0  0  0  0  0  0  0
    1.9137    0.8675   -3.9019 H   0  0  0  0  0  0  0  0  0  0  0  0
    0.4684    0.0806   -3.2589 H   0  0  0  0  0  0  0  0  0  0  0  0
    2.0420   -0.2803   -2.5612 H   0  0  0  0  0  0  0  0  0  0  0  0
    0.4255   -1.2037   -1.2860 O   0  0  0  0  0  0  0  0  0  0  0  0
    1.5341   -3.2542   -1.5633 C   0  0  0  0  0  0  0  0  0  0  0  0
    0.2819   -2.6329   -0.9719 C   0  0  0  0  0  0  0  0  0  0  0  0
    1.6919   -2.9173   -2.5969 H   0  0  0  0  0  0  0  0  0  0  0  0
    2.4315   -2.9828   -0.9950 H   0  0  0  0  0  0  0  0  0  0  0  0
    1.4618   -4.3484   -1.5762 H   0  0  0  0  0  0  0  0  0  0  0  0
   -0.6452   -2.9509   -1.4873 H   0  0  0  0  0  0  0  0  0  0  0  0
    0.1829   -2.8245    0.1139 H   0  0  0  0  0  0  0  0  0  0  0  0
    0.8504   -0.4783    1.4230 C   0  0  0  0  0  0  0  0  0  0  0  0
    2.4315   -1.0098    3.6521 C   0  0  0  0  0  0  0  0  0  0  0  0
    0.2545   -0.4839    2.6902 C   0  0  0  0  0  0  0  0  0  0  0  0
    2.2171   -0.7349    1.2612 C   0  0  0  0  0  0  0  0  0  0  0  0
    3.0113   -1.0031    2.3759 C   0  0  0  0  0  0  0  0  0  0  0  0
    1.0721   -0.7532    3.8092 C   0  0  0  0  0  0  0  0  0  0  0  0
    2.6832   -0.7308    0.2711 H   0  0  0  0  0  0  0  0  0  0  0  0
    4.0737   -1.2029    2.2587 H   0  0  0  0  0  0  0  0  0  0  0  0
    0.6325   -0.7630    4.8053 H   0  0  0  0  0  0  0  0  0  0  0  0
    3.0502   -1.2172    4.5259 H   0  0  0  0  0  0  0  0  0  0  0  0
   -1.2007   -0.2331    2.9117 C   0  0  0  0  0  0  0  0  0  0  0  0
   -1.8097   -1.0526    2.4665 H   0  0  0  0  0  0  0  0  0  0  0  0
   -1.5520    0.7243    2.4812 H   0  0  0  0  0  0  0  0  0  0  0  0
   -1.4666   -0.1993    3.9776 H   0  0  0  0  0  0  0  0  0  0  0  0
   -1.7965   -1.9144    0.4016 O   0  0  0  0  0  0  0  0  0  0  0  0
   -2.8969   -2.7917    0.3363 C   0  0  0  0  0  0  0  0  0  0  0  0
   -2.4986   -3.8028    0.4958 H   0  0  0  0  0  0  0  0  0  0  0  0
   -3.3655   -2.7180   -0.6533 H   0  0  0  0  0  0  0  0  0  0  0  0
   -3.6138   -2.5424    1.1284 H   0  0  0  0  0  0  0  0  0  0  0  0
  2  3  3  0  0  0  0
  1  2  1  0  0  0  0
  5  6  1  0  0  0  0
  5  7  1  0  0  0  0
  5  8  1  0  0  0  0
  4  5  1  0  0  0  0
  1  4  1  0  0  0  0
  1  9  1  0  0  0  0
 10 13  1  0  0  0  0
 13 14  2  0  0  0  0
 11 14  1  0  0  0  0
 11 15  2  0  0  0  0
 12 15  1  0  0  0  0
 10 12  2  0  0  0  0
 14 17  1  0  0  0  0
 15 18  1  0  0  0  0
 11 19  1  0  0  0  0
 13 16  1  0  0  0  0
 20 21  1  0  0  0  0
 20 22  1  0  0  0  0
 20 23  1  0  0  0  0
 12 20  1  0  0  0  0
  9 10  1  0  0  0  0
  9 24  1  0  0  0  0
 25 26  1  0  0  0  0
 25 27  1  0  0  0  0
 25 28  1  0  0  0  0
 25 29  1  0  0  0  0
 26 30  1  0  0  0  0
 26 31  1  0  0  0  0
 24 26  1  0  0  0  0
 32 35  1  0  0  0  0
 35 36  2  0  0  0  0
 33 36  1  0  0  0  0
 33 37  2  0  0  0  0
 34 37  1  0  0  0  0
 32 34  2  0  0  0  0
 36 39  1  0  0  0  0
 37 40  1  0  0  0  0
 33 41  1  0  0  0  0
 35 38  1  0  0  0  0
 42 43  1  0  0  0  0
 42 44  1  0  0  0  0
 42 45  1  0  0  0  0
 34 42  1  0  0  0  0
  9 32  1  0  0  0  0
 47 48  1  0  0  0  0
 47 49  1  0  0  0  0
 47 50  1  0  0  0  0
 46 47  1  0  0  0  0
  1 46  1  0  0  0  0
M  END
> <PM6_ENERGY>
-376.965

> <UID>
GTLHYLOOPBMFNI-FHQHSRBDNA-M

> <FITNESS>
1.14385

> <GCODE>
21574

> <GraphENC>
21574 72_1_0,79_64_1,109_47_1,86_65_1,357059_37_1,356947_48_1,356956_37_1,508435_32_1, 72_0_79_0_SINGLE_Xlig:0_Xlig:1,72_2_109_3_SINGLE_scaff:0_MPhosphinite:1,72_1_86_0_SINGLE_Xlig:0_Xlig:1,109_2_357059_0_SINGLE_LPhosphiniteSubR:0_SubArM:1,109_0_356947_0_SINGLE_LPhosphiniteSubO:0_LPhosphiniteSubO:1,109_1_356956_0_SINGLE_LPhosphiniteSubR:0_SubArM:1,356947_1_508435_0_SINGLE_OPhosphiniteSub:1_SubRS:1, SymmetricSet [symIds=[357059, 356956]] 

> <GraphJson>
{
  "graphId": 21574,
  "gVertices": [
    {
      "lstAPs": [
        {
          "id": 589511,
          "atomPositionNumber": 0,
          "atomPositionNumberInMol": 0,
          "apClass": {
            "rule": "Xlig",
            "subClass": 0,
            "bndTyp": "SINGLE"
          },
          "dirVec": {
            "x": -2.3339,
            "y": -0.0087,
            "z": 0.8172
          }
        },
        {
          "id": 589512,
          "atomPositionNumber": 0,
          "atomPositionNumberInMol": 0,
          "apClass": {
            "rule": "Xlig",
            "subClass": 0,
            "bndTyp": "SINGLE"
          },
          "dirVec": {
            "x": 2.336,
            "y": -5.0E-4,
            "z": 0.829
          }
        },
        {
          "id": 589513,
          "atomPositionNumber": 0,
          "atomPositionNumberInMol": 0,
          "apClass": {
            "rule": "scaff",
            "subClass": 0,
            "bndTyp": "SINGLE"
          },
          "dirVec": {
            "x": -0.0095,
            "y": 0.0046,
            "z": -1.7113
          }
        }
      ],
      "lstSymAPs": [
        {
          "symIds": [
            0,
            1
          ]
        }
      ],
      "mol": {
        "atoms": [
          {
            "elSymbol": "Pt",
            "p3d": {
              "x": -0.0098,
              "y": 0.0049,
              "z": 0.6289
            }
          },
          {
            "elSymbol": "C",
            "p3d": {
              "x": -6.0E-4,
              "y": 0.0016,
              "z": 2.5609
            }
          },
          {
            "elSymbol": "O",
            "p3d": {
              "x": 0.0025,
              "y": -0.0041,
              "z": 3.6974
            }
          },
          {
            "elSymbol": "Du",
            "p3d": {
              "x": -0.007,
              "y": 1.0013,
              "z": 0.6372
            }
          },
          {
            "elSymbol": "Du",
            "p3d": {
              "x": -0.0014,
              "y": 0.9902,
              "z": 2.5698
            }
          }
        ],
        "bonds": [
          {
            "atomIds": [
              1,
              2
            ],
            "bo": "TRIPLE"
          },
          {
            "atomIds": [
              0,
              1
            ],
            "bo": "SINGLE"
          },
          {
            "atomIds": [
              3,
              0
            ],
            "bo": "SINGLE"
          },
          {
            "atomIds": [
              4,
              1
            ],
            "bo": "SINGLE"
          }
        ]
      },
      "vertexId": 72,
      "buildingBlockId": 0,
      "buildingBlockType": "SCAFFOLD",
      "isRCV": false,
      "properties": {
        "ATTACHMENT_POINTS": "1#Xlig:0:SINGLE:-2.3339%-0.0087%0.8172,Xlig:0:SINGLE:2.3360%-0.0005%0.8290,scaff:0:SINGLE:-0.0095%0.0046%-1.7113 "
      },
      "uniquefyingPropertyKeys": [],
      "allowedMutationTypes": [
        "DELETE",
        "EXTEND",
        "CHANGEBRANCH",
        "CHANGELINK",
        "ADDLINK",
        "DELETELINK",
        "DELETECHAIN"
      ],
      "vertexType": "MolecularFragment"
    },
    {
      "lstAPs": [
        {
          "id": 589514,
          "atomPositionNumber": 0,
          "atomPositionNumberInMol": 5,
          "apClass": {
            "rule": "Xlig",
            "subClass": 1,
            "bndTyp": "SINGLE"
          },
          "dirVec": {
            "x": -0.102,
            "y": 0.0185,
            "z": -1.0265
          }
        }
      ],
      "lstSymAPs": [],
      "mol": {
        "atoms": [
          {
            "elSymbol": "S",
            "p3d": {
              "x": -0.3267,
              "y": 2.3403,
              "z": -1.0022
            }
          },
          {
            "elSymbol": "C",
            "p3d": {
              "x": -0.626,
              "y": 2.4866,
              "z": 0.7805
            }
          },
          {
            "elSymbol": "H",
            "p3d": {
              "x": 0.1766,
              "y": 3.089,
              "z": 1.2414
            }
          },
          {
            "elSymbol": "H",
            "p3d": {
              "x": -0.651,
              "y": 1.5065,
              "z": 1.2643
            }
          },
          {
            "elSymbol": "H",
            "p3d": {
              "x": -1.5658,
              "y": 2.981,
              "z": 0.9515
            }
          }
        ],
        "bonds": [
          {
            "atomIds": [
              1,
              2
            ],
            "bo": "SINGLE"
          },
          {
            "atomIds": [
              1,
              3
            ],
            "bo": "SINGLE"
          },
          {
            "atomIds": [
              1,
              4
            ],
            "bo": "SINGLE"
          },
          {
            "atomIds": [
              0,
              1
            ],
            "bo": "SINGLE"
          }
        ]
      },
      "vertexId": 79,
      "buildingBlockId": 63,
      "buildingBlockType": "FRAGMENT",
      "isRCV": false,
      "properties": {
        "ATTACHMENT_POINTS": "1#Xlig:1:SINGLE:-0.1020%0.0185%-1.0265 "
      },
      "uniquefyingPropertyKeys": [],
      "allowedMutationTypes": [
        "DELETE",
        "EXTEND",
        "CHANGEBRANCH",
        "CHANGELINK",
        "ADDLINK",
        "DELETELINK",
        "DELETECHAIN"
      ],
      "vertexType": "MolecularFragment"
    },
    {
      "lstAPs": [
        {
          "id": 589515,
          "atomPositionNumber": 0,
          "atomPositionNumberInMol": 10,
          "apClass": {
            "rule": "LPhosphiniteSubO",
            "subClass": 0,
            "bndTyp": "SINGLE"
          },
          "dirVec": {
            "x": 7.6619,
            "y": 4.8954,
            "z": 6.0599
          }
        },
        {
          "id": 589516,
          "atomPositionNumber": 0,
          "atomPositionNumberInMol": 10,
          "apClass": {
            "rule": "LPhosphiniteSubR",
            "subClass": 0,
            "bndTyp": "SINGLE"
          },
          "dirVec": {
            "x": 5.2032,
            "y": 3.9742,
            "z": 6.7915
          }
        },
        {
          "id": 589517,
          "atomPositionNumber": 0,
          "atomPositionNumberInMol": 10,
          "apClass": {
            "rule": "LPhosphiniteSubR",
            "subClass": 0,
            "bndTyp": "SINGLE"
          },
          "dirVec": {
            "x": 5.5408,
            "y": 5.7995,
            "z": 4.6157
          }
        },
        {
          "id": 589518,
          "atomPositionNumber": 0,
          "atomPositionNumberInMol": 10,
          "apClass": {
            "rule": "MPhosphinite",
            "subClass": 1,
            "bndTyp": "SINGLE"
          },
          "dirVec": {
            "x": 6.7665,
            "y": 2.684,
            "z": 3.9076
          }
        }
      ],
      "lstSymAPs": [
        {
          "symIds": [
            1,
            2
          ]
        }
      ],
      "mol": {
        "atoms": [
          {
            "elSymbol": "P",
            "p3d": {
              "x": 6.2956,
              "y": 4.3598,
              "z": 5.4081
            }
          }
        ],
        "bonds": []
      },
      "vertexId": 109,
      "buildingBlockId": 46,
      "buildingBlockType": "FRAGMENT",
      "isRCV": false,
      "properties": {
        "ATTACHMENT_POINTS": "1#LPhosphiniteSubO:0:SINGLE:7.6619%4.8954%6.0599,LPhosphiniteSubR:0:SINGLE:5.2032%3.9742%6.7915,LPhosphiniteSubR:0:SINGLE:5.5408%5.7995%4.6157,MPhosphinite:1:SINGLE:6.7665%2.6840%3.9076 "
      },
      "uniquefyingPropertyKeys": [],
      "allowedMutationTypes": [
        "DELETE",
        "EXTEND",
        "CHANGEBRANCH",
        "CHANGELINK",
        "ADDLINK",
        "DELETELINK",
        "DELETECHAIN"
      ],
      "vertexType": "MolecularFragment"
    },
    {
      "lstAPs": [
        {
          "id": 589519,
          "atomPositionNumber": 0,
          "atomPositionNumberInMol": 47,
          "apClass": {
            "rule": "Xlig",
            "subClass": 1,
            "bndTyp": "SINGLE"
          },
          "dirVec": {
            "x": -0.1753,
            "y": 0.0948,
            "z": -0.4464
          }
        }
      ],
      "lstSymAPs": [],
      "mol": {
        "atoms": [
          {
            "elSymbol": "O",
            "p3d": {
              "x": -0.3534,
              "y": 2.1044,
              "z": -0.7339
            }
          },
          {
            "elSymbol": "C",
            "p3d": {
              "x": -0.5345,
              "y": 2.7646,
              "z": 0.4801
            }
          },
          {
            "elSymbol": "H",
            "p3d": {
              "x": -0.3728,
              "y": 3.8337,
              "z": 0.2724
            }
          },
          {
            "elSymbol": "H",
            "p3d": {
              "x": 0.1816,
              "y": 2.4161,
              "z": 1.2384
            }
          },
          {
            "elSymbol": "H",
            "p3d": {
              "x": -1.553,
              "y": 2.6149,
              "z": 0.8489
            }
          }
        ],
        "bonds": [
          {
            "atomIds": [
              1,
              2
            ],
            "bo": "SINGLE"
          },
          {
            "atomIds": [
              1,
              3
            ],
            "bo": "SINGLE"
          },
          {
            "atomIds": [
              1,
              4
            ],
            "bo": "SINGLE"
          },
          {
            "atomIds": [
              0,
              1
            ],
            "bo": "SINGLE"
          }
        ]
      },
      "vertexId": 86,
      "buildingBlockId": 64,
      "buildingBlockType": "FRAGMENT",
      "isRCV": false,
      "properties": {
        "ATTACHMENT_POINTS": "1#Xlig:1:SINGLE:-0.1753%0.0948%-0.4464 "
      },
      "uniquefyingPropertyKeys": [],
      "allowedMutationTypes": [
        "DELETE",
        "EXTEND",
        "CHANGEBRANCH",
        "CHANGELINK",
        "ADDLINK",
        "DELETELINK",
        "DELETECHAIN"
      ],
      "vertexType": "MolecularFragment"
    },
    {
      "lstAPs": [
        {
          "id": 589520,
          "atomPositionNumber": 0,
          "atomPositionNumberInMol": 11,
          "apClass": {
            "rule": "SubArM",
            "subClass": 1,
            "bndTyp": "SINGLE"
          },
          "dirVec": {
            "x": 0.3016,
            "y": 0.3831,
            "z": -0.6449
          }
        }
      ],
      "lstSymAPs": [],
      "mol": {
        "atoms": [
          {
            "elSymbol": "C",
            "p3d": {
              "x": 1.7096,
              "y": 0.5525,
              "z": -1.2136
            }
          },
          {
            "elSymbol": "C",
            "p3d": {
              "x": 4.2502,
              "y": 0.8767,
              "z": -2.2636
            }
          },
          {
            "elSymbol": "C",
            "p3d": {
              "x": 2.3368,
              "y": 1.7899,
              "z": -1.1199
            }
          },
          {
            "elSymbol": "C",
            "p3d": {
              "x": 2.344,
              "y": -0.5151,
              "z": -1.819
            }
          },
          {
            "elSymbol": "C",
            "p3d": {
              "x": 3.6162,
              "y": -0.3625,
              "z": -2.3439
            }
          },
          {
            "elSymbol": "C",
            "p3d": {
              "x": 3.6039,
              "y": 1.9353,
              "z": -1.6584
            }
          },
          {
            "elSymbol": "H",
            "p3d": {
              "x": 1.8411,
              "y": -1.493,
              "z": -1.8837
            }
          },
          {
            "elSymbol": "H",
            "p3d": {
              "x": 4.113,
              "y": -1.2006,
              "z": -2.8069
            }
          },
          {
            "elSymbol": "H",
            "p3d": {
              "x": 4.1107,
              "y": 2.9115,
              "z": -1.5913
            }
          },
          {
            "elSymbol": "H",
            "p3d": {
              "x": 5.2516,
              "y": 0.992,
              "z": -2.67
            }
          },
          {
            "elSymbol": "C",
            "p3d": {
              "x": 1.6301,
              "y": 2.9729,
              "z": -0.4606
            }
          },
          {
            "elSymbol": "H",
            "p3d": {
              "x": 2.3743,
              "y": 3.6775,
              "z": -0.0646
            }
          },
          {
            "elSymbol": "H",
            "p3d": {
              "x": 1.0016,
              "y": 2.6144,
              "z": 0.3512
            }
          },
          {
            "elSymbol": "H",
            "p3d": {
              "x": 1.0097,
              "y": 3.4845,
              "z": -1.1971
            }
          }
        ],
        "bonds": [
          {
            "atomIds": [
              0,
              3
            ],
            "bo": "SINGLE"
          },
          {
            "atomIds": [
              3,
              4
            ],
            "bo": "DOUBLE"
          },
          {
            "atomIds": [
              1,
              4
            ],
            "bo": "SINGLE"
          },
          {
            "atomIds": [
              1,
              5
            ],
            "bo": "DOUBLE"
          },
          {
            "atomIds": [
              2,
              5
            ],
            "bo": "SINGLE"
          },
          {
            "atomIds": [
              0,
              2
            ],
            "bo": "DOUBLE"
          },
          {
            "atomIds": [
              4,
              7
            ],
            "bo": "SINGLE"
          },
          {
            "atomIds": [
              5,
              8
            ],
            "bo": "SINGLE"
          },
          {
            "atomIds": [
              1,
              9
            ],
            "bo": "SINGLE"
          },
          {
            "atomIds": [
              3,
              6
            ],
            "bo": "SINGLE"
          },
          {
            "atomIds": [
              10,
              11
            ],
            "bo": "SINGLE"
          },
          {
            "atomIds": [
              10,
              12
            ],
            "bo": "SINGLE"
          },
          {
            "atomIds": [
              10,
              13
            ],
            "bo": "SINGLE"
          },
          {
            "atomIds": [
              2,
              10
            ],
            "bo": "SINGLE"
          }
        ]
      },
      "vertexId": 357059,
      "buildingBlockId": 36,
      "buildingBlockType": "FRAGMENT",
      "isRCV": false,
      "properties": {
        "ATTACHMENT_POINTS": "1#SubArM:1:SINGLE:0.3016%0.3831%-0.6449 "
      },
      "uniquefyingPropertyKeys": [],
      "allowedMutationTypes": [
        "DELETE",
        "EXTEND",
        "CHANGEBRANCH",
        "CHANGELINK",
        "ADDLINK",
        "DELETELINK",
        "DELETECHAIN"
      ],
      "vertexType": "MolecularFragment"
    },
    {
      "lstAPs": [
        {
          "id": 589521,
          "atomPositionNumber": 0,
          "atomPositionNumberInMol": 25,
          "apClass": {
            "rule": "LPhosphiniteSubO",
            "subClass": 1,
            "bndTyp": "SINGLE"
          },
          "dirVec": {
            "x": -3.8355,
            "y": 7.5392,
            "z": 4.6611
          }
        },
        {
          "id": 589522,
          "atomPositionNumber": 0,
          "atomPositionNumberInMol": 25,
          "apClass": {
            "rule": "OPhosphiniteSub",
            "subClass": 1,
            "bndTyp": "SINGLE"
          },
          "dirVec": {
            "x": -3.5459,
            "y": 7.828,
            "z": 2.0236
          }
        }
      ],
      "lstSymAPs": [],
      "mol": {
        "atoms": [
          {
            "elSymbol": "O",
            "p3d": {
              "x": -4.0711,
              "y": 7.164,
              "z": 3.1009
            }
          }
        ],
        "bonds": []
      },
      "vertexId": 356947,
      "buildingBlockId": 47,
      "buildingBlockType": "FRAGMENT",
      "isRCV": false,
      "properties": {
        "ATTACHMENT_POINTS": "1#LPhosphiniteSubO:1:SINGLE:-3.8355%7.5392%4.6611,OPhosphiniteSub:1:SINGLE:-3.5459%7.8280%2.0236 "
      },
      "uniquefyingPropertyKeys": [],
      "allowedMutationTypes": [
        "DELETE",
        "EXTEND",
        "CHANGEBRANCH",
        "CHANGELINK",
        "ADDLINK",
        "DELETELINK",
        "DELETECHAIN"
      ],
      "vertexType": "MolecularFragment"
    },
    {
      "lstAPs": [
        {
          "id": 589523,
          "atomPositionNumber": 0,
          "atomPositionNumberInMol": 33,
          "apClass": {
            "rule": "SubArM",
            "subClass": 1,
            "bndTyp": "SINGLE"
          },
          "dirVec": {
            "x": 0.3016,
            "y": 0.3831,
            "z": -0.6449
          }
        }
      ],
      "lstSymAPs": [],
      "mol": {
        "atoms": [
          {
            "elSymbol": "C",
            "p3d": {
              "x": 1.7096,
              "y": 0.5525,
              "z": -1.2136
            }
          },
          {
            "elSymbol": "C",
            "p3d": {
              "x": 4.2502,
              "y": 0.8767,
              "z": -2.2636
            }
          },
          {
            "elSymbol": "C",
            "p3d": {
              "x": 2.3368,
              "y": 1.7899,
              "z": -1.1199
            }
          },
          {
            "elSymbol": "C",
            "p3d": {
              "x": 2.344,
              "y": -0.5151,
              "z": -1.819
            }
          },
          {
            "elSymbol": "C",
            "p3d": {
              "x": 3.6162,
              "y": -0.3625,
              "z": -2.3439
            }
          },
          {
            "elSymbol": "C",
            "p3d": {
              "x": 3.6039,
              "y": 1.9353,
              "z": -1.6584
            }
          },
          {
            "elSymbol": "H",
            "p3d": {
              "x": 1.8411,
              "y": -1.493,
              "z": -1.8837
            }
          },
          {
            "elSymbol": "H",
            "p3d": {
              "x": 4.113,
              "y": -1.2006,
              "z": -2.8069
            }
          },
          {
            "elSymbol": "H",
            "p3d": {
              "x": 4.1107,
              "y": 2.9115,
              "z": -1.5913
            }
          },
          {
            "elSymbol": "H",
            "p3d": {
              "x": 5.2516,
              "y": 0.992,
              "z": -2.67
            }
          },
          {
            "elSymbol": "C",
            "p3d": {
              "x": 1.6301,
              "y": 2.9729,
              "z": -0.4606
            }
          },
          {
            "elSymbol": "H",
            "p3d": {
              "x": 2.3743,
              "y": 3.6775,
              "z": -0.0646
            }
          },
          {
            "elSymbol": "H",
            "p3d": {
              "x": 1.0016,
              "y": 2.6144,
              "z": 0.3512
            }
          },
          {
            "elSymbol": "H",
            "p3d": {
              "x": 1.0097,
              "y": 3.4845,
              "z": -1.1971
            }
          }
        ],
        "bonds": [
          {
            "atomIds": [
              0,
              3
            ],
            "bo": "SINGLE"
          },
          {
            "atomIds": [
              3,
              4
            ],
            "bo": "DOUBLE"
          },
          {
            "atomIds": [
              1,
              4
            ],
            "bo": "SINGLE"
          },
          {
            "atomIds": [
              1,
              5
            ],
            "bo": "DOUBLE"
          },
          {
            "atomIds": [
              2,
              5
            ],
            "bo": "SINGLE"
          },
          {
            "atomIds": [
              0,
              2
            ],
            "bo": "DOUBLE"
          },
          {
            "atomIds": [
              4,
              7
            ],
            "bo": "SINGLE"
          },
          {
            "atomIds": [
              5,
              8
            ],
            "bo": "SINGLE"
          },
          {
            "atomIds": [
              1,
              9
            ],
            "bo": "SINGLE"
          },
          {
            "atomIds": [
              3,
              6
            ],
            "bo": "SINGLE"
          },
          {
            "atomIds": [
              10,
              11
            ],
            "bo": "SINGLE"
          },
          {
            "atomIds": [
              10,
              12
            ],
            "bo": "SINGLE"
          },
          {
            "atomIds": [
              10,
              13
            ],
            "bo": "SINGLE"
          },
          {
            "atomIds": [
              2,
              10
            ],
            "bo": "SINGLE"
          }
        ]
      },
      "vertexId": 356956,
      "buildingBlockId": 36,
      "buildingBlockType": "FRAGMENT",
      "isRCV": false,
      "properties": {
        "ATTACHMENT_POINTS": "1#SubArM:1:SINGLE:0.3016%0.3831%-0.6449 "
      },
      "uniquefyingPropertyKeys": [],
      "allowedMutationTypes": [
        "DELETE",
        "EXTEND",
        "CHANGEBRANCH",
        "CHANGELINK",
        "ADDLINK",
        "DELETELINK",
        "DELETECHAIN"
      ],
      "vertexType": "MolecularFragment"
    },
    {
      "lstAPs": [
        {
          "id": 589566,
          "atomPositionNumber": 1,
          "atomPositionNumberInMol": 27,
          "apClass": {
            "rule": "SubRS",
            "subClass": 1,
            "bndTyp": "SINGLE"
          },
          "dirVec": {
            "x": 0.2985,
            "y": 0.384,
            "z": -0.6258
          }
        }
      ],
      "lstSymAPs": [],
      "mol": {
        "atoms": [
          {
            "elSymbol": "C",
            "p3d": {
              "x": -1.0244,
              "y": -0.2225,
              "z": 1.3991
            }
          },
          {
            "elSymbol": "C",
            "p3d": {
              "x": 0.3973,
              "y": -0.042,
              "z": 0.8195
            }
          },
          {
            "elSymbol": "H",
            "p3d": {
              "x": -1.5635,
              "y": -0.9908,
              "z": 0.8263
            }
          },
          {
            "elSymbol": "H",
            "p3d": {
              "x": -0.941,
              "y": -0.535,
              "z": 2.446
            }
          },
          {
            "elSymbol": "H",
            "p3d": {
              "x": -1.5586,
              "y": 0.7335,
              "z": 1.3382
            }
          },
          {
            "elSymbol": "H",
            "p3d": {
              "x": 0.9335,
              "y": 0.7221,
              "z": 1.4011
            }
          },
          {
            "elSymbol": "H",
            "p3d": {
              "x": 0.927,
              "y": -1.0102,
              "z": 0.9001
            }
          }
        ],
        "bonds": [
          {
            "atomIds": [
              0,
              1
            ],
            "bo": "SINGLE"
          },
          {
            "atomIds": [
              0,
              2
            ],
            "bo": "SINGLE"
          },
          {
            "atomIds": [
              0,
              3
            ],
            "bo": "SINGLE"
          },
          {
            "atomIds": [
              0,
              4
            ],
            "bo": "SINGLE"
          },
          {
            "atomIds": [
              1,
              5
            ],
            "bo": "SINGLE"
          },
          {
            "atomIds": [
              1,
              6
            ],
            "bo": "SINGLE"
          }
        ]
      },
      "vertexId": 508435,
      "buildingBlockId": 31,
      "buildingBlockType": "FRAGMENT",
      "isRCV": false,
      "properties": {
        "ATTACHMENT_POINTS": "2#SubRS:1:SINGLE:0.2985%0.3840%-0.6258 "
      },
      "uniquefyingPropertyKeys": [],
      "allowedMutationTypes": [
        "DELETE",
        "EXTEND",
        "CHANGEBRANCH",
        "CHANGELINK",
        "ADDLINK",
        "DELETELINK",
        "DELETECHAIN"
      ],
      "vertexType": "MolecularFragment"
    }
  ],
  "gEdges": [
    {
      "srcAPID": 589511,
      "trgAPID": 589514,
      "bondType": "SINGLE"
    },
    {
      "srcAPID": 589513,
      "trgAPID": 589518,
      "bondType": "SINGLE"
    },
    {
      "srcAPID": 589512,
      "trgAPID": 589519,
      "bondType": "SINGLE"
    },
    {
      "srcAPID": 589517,
      "trgAPID": 589520,
      "bondType": "SINGLE"
    },
    {
      "srcAPID": 589515,
      "trgAPID": 589521,
      "bondType": "SINGLE"
    },
    {
      "srcAPID": 589516,
      "trgAPID": 589523,
      "bondType": "SINGLE"
    },
    {
      "srcAPID": 589522,
      "trgAPID": 589566,
      "bondType": "SINGLE"
    }
  ],
  "gRings": [],
  "symVertices": [
    {
      "symIds": [
        357059,
        356956
      ]
    }
  ]
}

> <SMILES>
[Pt](C#O)(SC([H])([H])[H])([P](C=1C(=C(C(=C(C1C([H])([H])[H])[H])[H])[H])[H])(OC(C([H])([H])[H])([H])[H])C=2C(=C(C(=C(C2C([H])([H])[H])[H])[H])[H])[H])OC([H])([H])[H]

$$$$
