M00019267
  CDK     04222215343D

 36 36  0  0  0  0  0  0  0  0999 V2000
   -2.3788    0.2041    1.1817 Pt  0  0  0  0  0  0  0  0  0  0  0  0
   -4.3232    0.0035    1.2743 C   0  0  0  0  0  0  0  0  0  0  0  0
   -5.4586   -0.1066    1.3285 O   0  0  0  0  0  0  0  0  0  0  0  0
   -3.0937    2.3614    0.6750 Cl  0  0  0  0  0  0  0  0  0  0  0  0
   -0.1078    0.2972    1.1810 P   0  0  0  0  0  0  0  0  0  0  0  0
    0.5225    1.4177    0.0587 O   0  0  0  0  0  0  0  0  0  0  0  0
    0.9474    0.8302   -1.1435 C   0  0  0  0  0  0  0  0  0  0  0  0
    1.8991   -0.1345   -3.5607 C   0  0  0  0  0  0  0  0  0  0  0  0
    2.3407    0.7835   -1.3567 C   0  0  0  0  0  0  0  0  0  0  0  0
    0.0163    0.4359   -2.1266 C   0  0  0  0  0  0  0  0  0  0  0  0
    0.5226   -0.0584   -3.3384 C   0  0  0  0  0  0  0  0  0  0  0  0
    2.8033    0.2885   -2.5835 C   0  0  0  0  0  0  0  0  0  0  0  0
   -0.1689   -0.3775   -4.1176 H   0  0  0  0  0  0  0  0  0  0  0  0
    3.8735    0.2395   -2.7766 H   0  0  0  0  0  0  0  0  0  0  0  0
    2.2717   -0.5205   -4.5095 H   0  0  0  0  0  0  0  0  0  0  0  0
    3.2945    1.2541   -0.3111 C   0  0  0  0  0  0  0  0  0  0  0  0
    3.6643    0.4203    0.2998 H   0  0  0  0  0  0  0  0  0  0  0  0
    2.8255    1.9879    0.3645 H   0  0  0  0  0  0  0  0  0  0  0  0
    4.1712    1.7500   -0.7518 H   0  0  0  0  0  0  0  0  0  0  0  0
   -1.4526    0.5475   -1.9057 C   0  0  0  0  0  0  0  0  0  0  0  0
   -1.7160    1.5128   -1.4291 H   0  0  0  0  0  0  0  0  0  0  0  0
   -1.8576   -0.2653   -1.2752 H   0  0  0  0  0  0  0  0  0  0  0  0
   -2.0191    0.5159   -2.8477 H   0  0  0  0  0  0  0  0  0  0  0  0
    0.4501    1.0415    2.7944 C   0  0  0  0  0  0  0  0  0  0  0  0
    0.1265    0.4238    3.6466 H   0  0  0  0  0  0  0  0  0  0  0  0
    1.5402    1.1564    2.8460 H   0  0  0  0  0  0  0  0  0  0  0  0
    0.0084    2.0453    2.9305 H   0  0  0  0  0  0  0  0  0  0  0  0
    0.8118   -1.2962    0.9135 C   0  0  0  0  0  0  0  0  0  0  0  0
    0.6586   -1.6864   -0.1059 H   0  0  0  0  0  0  0  0  0  0  0  0
    1.8879   -1.1883    1.0855 H   0  0  0  0  0  0  0  0  0  0  0  0
    0.4161   -2.0842    1.5898 H   0  0  0  0  0  0  0  0  0  0  0  0
   -1.6336   -1.6307    1.6755 O   0  0  0  0  0  0  0  0  0  0  0  0
   -2.5533   -2.3900    2.4334 C   0  0  0  0  0  0  0  0  0  0  0  0
   -3.4002   -2.6790    1.7988 H   0  0  0  0  0  0  0  0  0  0  0  0
   -2.8840   -1.8131    3.3058 H   0  0  0  0  0  0  0  0  0  0  0  0
   -2.0049   -3.2864    2.7559 H   0  0  0  0  0  0  0  0  0  0  0  0
  2  3  3  0  0  0  0
  1  2  1  0  0  0  0
  1  4  1  0  0  0  0
  1  5  1  0  0  0  0
  5  6  1  0  0  0  0
  7 10  1  0  0  0  0
 10 11  2  0  0  0  0
  8 11  1  0  0  0  0
  8 12  2  0  0  0  0
  9 12  1  0  0  0  0
  7  9  2  0  0  0  0
 11 13  1  0  0  0  0
 12 14  1  0  0  0  0
  8 15  1  0  0  0  0
 16 17  1  0  0  0  0
 16 18  1  0  0  0  0
 16 19  1  0  0  0  0
  9 16  1  0  0  0  0
 20 21  1  0  0  0  0
 20 22  1  0  0  0  0
 20 23  1  0  0  0  0
 10 20  1  0  0  0  0
  6  7  1  0  0  0  0
 24 25  1  0  0  0  0
 24 26  1  0  0  0  0
 24 27  1  0  0  0  0
  5 24  1  0  0  0  0
 28 29  1  0  0  0  0
 28 30  1  0  0  0  0
 28 31  1  0  0  0  0
  5 28  1  0  0  0  0
 33 34  1  0  0  0  0
 33 35  1  0  0  0  0
 33 36  1  0  0  0  0
 32 33  1  0  0  0  0
  1 32  1  0  0  0  0
M  END
> <PM6_ENERGY>
-563.210

> <UID>
BOBZLPKUJSYOJI-WNVNHUGUNA-M

> <FITNESS>
1.14201

> <GCODE>
20628

> <GraphENC>
20628 72_1_0,82_67_1,109_47_1,86_65_1,296315_48_1,296334_31_1,296318_31_1,464488_38_1, 72_0_82_0_SINGLE_Xlig:0_Xlig:1,72_2_109_3_SINGLE_scaff:0_MPhosphinite:1,72_1_86_0_SINGLE_Xlig:0_Xlig:1,109_0_296315_0_SINGLE_LPhosphiniteSubO:0_LPhosphiniteSubO:1,109_2_296334_0_SINGLE_LPhosphiniteSubR:0_SubRS:1,109_1_296318_0_SINGLE_LPhosphiniteSubR:0_SubRS:1,296315_1_464488_0_SINGLE_OPhosphiniteSub:1_SubArL:1, SymmetricSet [symIds=[296334, 296318]] 

> <GraphJson>
{
  "graphId": 20628,
  "gVertices": [
    {
      "lstAPs": [
        {
          "id": 561253,
          "atomPositionNumber": 0,
          "atomPositionNumberInMol": 0,
          "apClass": {
            "rule": "Xlig",
            "subClass": 0,
            "bndTyp": "SINGLE"
          },
          "dirVec": {
            "x": -2.3339,
            "y": -0.0087,
            "z": 0.8172
          }
        },
        {
          "id": 561254,
          "atomPositionNumber": 0,
          "atomPositionNumberInMol": 0,
          "apClass": {
            "rule": "Xlig",
            "subClass": 0,
            "bndTyp": "SINGLE"
          },
          "dirVec": {
            "x": 2.336,
            "y": -5.0E-4,
            "z": 0.829
          }
        },
        {
          "id": 561255,
          "atomPositionNumber": 0,
          "atomPositionNumberInMol": 0,
          "apClass": {
            "rule": "scaff",
            "subClass": 0,
            "bndTyp": "SINGLE"
          },
          "dirVec": {
            "x": -0.0095,
            "y": 0.0046,
            "z": -1.7113
          }
        }
      ],
      "lstSymAPs": [
        {
          "symIds": [
            0,
            1
          ]
        }
      ],
      "mol": {
        "atoms": [
          {
            "elSymbol": "Pt",
            "p3d": {
              "x": -0.0098,
              "y": 0.0049,
              "z": 0.6289
            }
          },
          {
            "elSymbol": "C",
            "p3d": {
              "x": -6.0E-4,
              "y": 0.0016,
              "z": 2.5609
            }
          },
          {
            "elSymbol": "O",
            "p3d": {
              "x": 0.0025,
              "y": -0.0041,
              "z": 3.6974
            }
          },
          {
            "elSymbol": "Du",
            "p3d": {
              "x": -0.007,
              "y": 1.0013,
              "z": 0.6372
            }
          },
          {
            "elSymbol": "Du",
            "p3d": {
              "x": -0.0014,
              "y": 0.9902,
              "z": 2.5698
            }
          }
        ],
        "bonds": [
          {
            "atomIds": [
              1,
              2
            ],
            "bo": "TRIPLE"
          },
          {
            "atomIds": [
              0,
              1
            ],
            "bo": "SINGLE"
          },
          {
            "atomIds": [
              3,
              0
            ],
            "bo": "SINGLE"
          },
          {
            "atomIds": [
              4,
              1
            ],
            "bo": "SINGLE"
          }
        ]
      },
      "vertexId": 72,
      "buildingBlockId": 0,
      "buildingBlockType": "SCAFFOLD",
      "isRCV": false,
      "properties": {
        "ATTACHMENT_POINTS": "1#Xlig:0:SINGLE:-2.3339%-0.0087%0.8172,Xlig:0:SINGLE:2.3360%-0.0005%0.8290,scaff:0:SINGLE:-0.0095%0.0046%-1.7113 "
      },
      "uniquefyingPropertyKeys": [],
      "allowedMutationTypes": [
        "DELETE",
        "EXTEND",
        "CHANGEBRANCH",
        "CHANGELINK",
        "ADDLINK",
        "DELETELINK",
        "DELETECHAIN"
      ],
      "vertexType": "MolecularFragment"
    },
    {
      "lstAPs": [
        {
          "id": 561256,
          "atomPositionNumber": 0,
          "atomPositionNumberInMol": 5,
          "apClass": {
            "rule": "Xlig",
            "subClass": 1,
            "bndTyp": "SINGLE"
          },
          "dirVec": {
            "x": -0.0053,
            "y": -0.0027,
            "z": 0.63
          }
        }
      ],
      "lstSymAPs": [],
      "mol": {
        "atoms": [
          {
            "elSymbol": "Cl",
            "p3d": {
              "x": 2.3243,
              "y": -0.0063,
              "z": 0.8189
            }
          }
        ],
        "bonds": []
      },
      "vertexId": 82,
      "buildingBlockId": 66,
      "buildingBlockType": "FRAGMENT",
      "isRCV": false,
      "properties": {
        "ATTACHMENT_POINTS": "1#Xlig:1:SINGLE:-0.0053%-0.0027%0.6300 "
      },
      "uniquefyingPropertyKeys": [],
      "allowedMutationTypes": [
        "DELETE",
        "EXTEND",
        "CHANGEBRANCH",
        "CHANGELINK",
        "ADDLINK",
        "DELETELINK",
        "DELETECHAIN"
      ],
      "vertexType": "MolecularFragment"
    },
    {
      "lstAPs": [
        {
          "id": 561257,
          "atomPositionNumber": 0,
          "atomPositionNumberInMol": 6,
          "apClass": {
            "rule": "LPhosphiniteSubO",
            "subClass": 0,
            "bndTyp": "SINGLE"
          },
          "dirVec": {
            "x": 7.6619,
            "y": 4.8954,
            "z": 6.0599
          }
        },
        {
          "id": 561258,
          "atomPositionNumber": 0,
          "atomPositionNumberInMol": 6,
          "apClass": {
            "rule": "LPhosphiniteSubR",
            "subClass": 0,
            "bndTyp": "SINGLE"
          },
          "dirVec": {
            "x": 5.2032,
            "y": 3.9742,
            "z": 6.7915
          }
        },
        {
          "id": 561259,
          "atomPositionNumber": 0,
          "atomPositionNumberInMol": 6,
          "apClass": {
            "rule": "LPhosphiniteSubR",
            "subClass": 0,
            "bndTyp": "SINGLE"
          },
          "dirVec": {
            "x": 5.5408,
            "y": 5.7995,
            "z": 4.6157
          }
        },
        {
          "id": 561260,
          "atomPositionNumber": 0,
          "atomPositionNumberInMol": 6,
          "apClass": {
            "rule": "MPhosphinite",
            "subClass": 1,
            "bndTyp": "SINGLE"
          },
          "dirVec": {
            "x": 6.7665,
            "y": 2.684,
            "z": 3.9076
          }
        }
      ],
      "lstSymAPs": [
        {
          "symIds": [
            1,
            2
          ]
        }
      ],
      "mol": {
        "atoms": [
          {
            "elSymbol": "P",
            "p3d": {
              "x": 6.2956,
              "y": 4.3598,
              "z": 5.4081
            }
          }
        ],
        "bonds": []
      },
      "vertexId": 109,
      "buildingBlockId": 46,
      "buildingBlockType": "FRAGMENT",
      "isRCV": false,
      "properties": {
        "ATTACHMENT_POINTS": "1#LPhosphiniteSubO:0:SINGLE:7.6619%4.8954%6.0599,LPhosphiniteSubR:0:SINGLE:5.2032%3.9742%6.7915,LPhosphiniteSubR:0:SINGLE:5.5408%5.7995%4.6157,MPhosphinite:1:SINGLE:6.7665%2.6840%3.9076 "
      },
      "uniquefyingPropertyKeys": [],
      "allowedMutationTypes": [
        "DELETE",
        "EXTEND",
        "CHANGEBRANCH",
        "CHANGELINK",
        "ADDLINK",
        "DELETELINK",
        "DELETECHAIN"
      ],
      "vertexType": "MolecularFragment"
    },
    {
      "lstAPs": [
        {
          "id": 561261,
          "atomPositionNumber": 0,
          "atomPositionNumberInMol": 33,
          "apClass": {
            "rule": "Xlig",
            "subClass": 1,
            "bndTyp": "SINGLE"
          },
          "dirVec": {
            "x": -0.1753,
            "y": 0.0948,
            "z": -0.4464
          }
        }
      ],
      "lstSymAPs": [],
      "mol": {
        "atoms": [
          {
            "elSymbol": "O",
            "p3d": {
              "x": -0.3534,
              "y": 2.1044,
              "z": -0.7339
            }
          },
          {
            "elSymbol": "C",
            "p3d": {
              "x": -0.5345,
              "y": 2.7646,
              "z": 0.4801
            }
          },
          {
            "elSymbol": "H",
            "p3d": {
              "x": -0.3728,
              "y": 3.8337,
              "z": 0.2724
            }
          },
          {
            "elSymbol": "H",
            "p3d": {
              "x": 0.1816,
              "y": 2.4161,
              "z": 1.2384
            }
          },
          {
            "elSymbol": "H",
            "p3d": {
              "x": -1.553,
              "y": 2.6149,
              "z": 0.8489
            }
          }
        ],
        "bonds": [
          {
            "atomIds": [
              1,
              2
            ],
            "bo": "SINGLE"
          },
          {
            "atomIds": [
              1,
              3
            ],
            "bo": "SINGLE"
          },
          {
            "atomIds": [
              1,
              4
            ],
            "bo": "SINGLE"
          },
          {
            "atomIds": [
              0,
              1
            ],
            "bo": "SINGLE"
          }
        ]
      },
      "vertexId": 86,
      "buildingBlockId": 64,
      "buildingBlockType": "FRAGMENT",
      "isRCV": false,
      "properties": {
        "ATTACHMENT_POINTS": "1#Xlig:1:SINGLE:-0.1753%0.0948%-0.4464 "
      },
      "uniquefyingPropertyKeys": [],
      "allowedMutationTypes": [
        "DELETE",
        "EXTEND",
        "CHANGEBRANCH",
        "CHANGELINK",
        "ADDLINK",
        "DELETELINK",
        "DELETECHAIN"
      ],
      "vertexType": "MolecularFragment"
    },
    {
      "lstAPs": [
        {
          "id": 561262,
          "atomPositionNumber": 0,
          "atomPositionNumberInMol": 7,
          "apClass": {
            "rule": "LPhosphiniteSubO",
            "subClass": 1,
            "bndTyp": "SINGLE"
          },
          "dirVec": {
            "x": -3.8355,
            "y": 7.5392,
            "z": 4.6611
          }
        },
        {
          "id": 561263,
          "atomPositionNumber": 0,
          "atomPositionNumberInMol": 7,
          "apClass": {
            "rule": "OPhosphiniteSub",
            "subClass": 1,
            "bndTyp": "SINGLE"
          },
          "dirVec": {
            "x": -3.5459,
            "y": 7.828,
            "z": 2.0236
          }
        }
      ],
      "lstSymAPs": [],
      "mol": {
        "atoms": [
          {
            "elSymbol": "O",
            "p3d": {
              "x": -4.0711,
              "y": 7.164,
              "z": 3.1009
            }
          }
        ],
        "bonds": []
      },
      "vertexId": 296315,
      "buildingBlockId": 47,
      "buildingBlockType": "FRAGMENT",
      "isRCV": false,
      "properties": {
        "ATTACHMENT_POINTS": "1#LPhosphiniteSubO:1:SINGLE:-3.8355%7.5392%4.6611,OPhosphiniteSub:1:SINGLE:-3.5459%7.8280%2.0236 "
      },
      "uniquefyingPropertyKeys": [],
      "allowedMutationTypes": [
        "DELETE",
        "EXTEND",
        "CHANGEBRANCH",
        "CHANGELINK",
        "ADDLINK",
        "DELETELINK",
        "DELETECHAIN"
      ],
      "vertexType": "MolecularFragment"
    },
    {
      "lstAPs": [
        {
          "id": 561264,
          "atomPositionNumber": 0,
          "atomPositionNumberInMol": 25,
          "apClass": {
            "rule": "SubRS",
            "subClass": 1,
            "bndTyp": "SINGLE"
          },
          "dirVec": {
            "x": 0.2865,
            "y": 0.3959,
            "z": -0.6387
          }
        }
      ],
      "lstSymAPs": [],
      "mol": {
        "atoms": [
          {
            "elSymbol": "C",
            "p3d": {
              "x": 0.3969,
              "y": -0.0496,
              "z": 0.8235
            }
          },
          {
            "elSymbol": "H",
            "p3d": {
              "x": -0.6146,
              "y": -0.163,
              "z": 1.2402
            }
          },
          {
            "elSymbol": "H",
            "p3d": {
              "x": 0.9335,
              "y": -0.9979,
              "z": 0.8998
            }
          },
          {
            "elSymbol": "H",
            "p3d": {
              "x": 0.9252,
              "y": 0.7237,
              "z": 1.3995
            }
          }
        ],
        "bonds": [
          {
            "atomIds": [
              0,
              1
            ],
            "bo": "SINGLE"
          },
          {
            "atomIds": [
              0,
              2
            ],
            "bo": "SINGLE"
          },
          {
            "atomIds": [
              0,
              3
            ],
            "bo": "SINGLE"
          }
        ]
      },
      "vertexId": 296334,
      "buildingBlockId": 30,
      "buildingBlockType": "FRAGMENT",
      "isRCV": false,
      "properties": {
        "ATTACHMENT_POINTS": "1#SubRS:1:SINGLE:0.2865%0.3959%-0.6387 "
      },
      "uniquefyingPropertyKeys": [],
      "allowedMutationTypes": [
        "DELETE",
        "EXTEND",
        "CHANGEBRANCH",
        "CHANGELINK",
        "ADDLINK",
        "DELETELINK",
        "DELETECHAIN"
      ],
      "vertexType": "MolecularFragment"
    },
    {
      "lstAPs": [
        {
          "id": 561265,
          "atomPositionNumber": 0,
          "atomPositionNumberInMol": 29,
          "apClass": {
            "rule": "SubRS",
            "subClass": 1,
            "bndTyp": "SINGLE"
          },
          "dirVec": {
            "x": 0.2865,
            "y": 0.3959,
            "z": -0.6387
          }
        }
      ],
      "lstSymAPs": [],
      "mol": {
        "atoms": [
          {
            "elSymbol": "C",
            "p3d": {
              "x": 0.3969,
              "y": -0.0496,
              "z": 0.8235
            }
          },
          {
            "elSymbol": "H",
            "p3d": {
              "x": -0.6146,
              "y": -0.163,
              "z": 1.2402
            }
          },
          {
            "elSymbol": "H",
            "p3d": {
              "x": 0.9335,
              "y": -0.9979,
              "z": 0.8998
            }
          },
          {
            "elSymbol": "H",
            "p3d": {
              "x": 0.9252,
              "y": 0.7237,
              "z": 1.3995
            }
          }
        ],
        "bonds": [
          {
            "atomIds": [
              0,
              1
            ],
            "bo": "SINGLE"
          },
          {
            "atomIds": [
              0,
              2
            ],
            "bo": "SINGLE"
          },
          {
            "atomIds": [
              0,
              3
            ],
            "bo": "SINGLE"
          }
        ]
      },
      "vertexId": 296318,
      "buildingBlockId": 30,
      "buildingBlockType": "FRAGMENT",
      "isRCV": false,
      "properties": {
        "ATTACHMENT_POINTS": "1#SubRS:1:SINGLE:0.2865%0.3959%-0.6387 "
      },
      "uniquefyingPropertyKeys": [],
      "allowedMutationTypes": [
        "DELETE",
        "EXTEND",
        "CHANGEBRANCH",
        "CHANGELINK",
        "ADDLINK",
        "DELETELINK",
        "DELETECHAIN"
      ],
      "vertexType": "MolecularFragment"
    },
    {
      "lstAPs": [
        {
          "id": 561294,
          "atomPositionNumber": 0,
          "atomPositionNumberInMol": 8,
          "apClass": {
            "rule": "SubArL",
            "subClass": 1,
            "bndTyp": "SINGLE"
          },
          "dirVec": {
            "x": 0.2957,
            "y": 0.3816,
            "z": -0.6358
          }
        }
      ],
      "lstSymAPs": [],
      "mol": {
        "atoms": [
          {
            "elSymbol": "C",
            "p3d": {
              "x": 1.7088,
              "y": 0.551,
              "z": -1.2192
            }
          },
          {
            "elSymbol": "C",
            "p3d": {
              "x": 4.2535,
              "y": 0.8673,
              "z": -2.2548
            }
          },
          {
            "elSymbol": "C",
            "p3d": {
              "x": 2.3329,
              "y": 1.7979,
              "z": -1.1377
            }
          },
          {
            "elSymbol": "C",
            "p3d": {
              "x": 2.3315,
              "y": -0.5114,
              "z": -1.8171
            }
          },
          {
            "elSymbol": "C",
            "p3d": {
              "x": 3.6062,
              "y": -0.3595,
              "z": -2.3299
            }
          },
          {
            "elSymbol": "C",
            "p3d": {
              "x": 3.6205,
              "y": 1.9526,
              "z": -1.657
            }
          },
          {
            "elSymbol": "H",
            "p3d": {
              "x": 4.116,
              "y": -1.2062,
              "z": -2.8187
            }
          },
          {
            "elSymbol": "H",
            "p3d": {
              "x": 4.1193,
              "y": 2.9144,
              "z": -1.5883
            }
          },
          {
            "elSymbol": "H",
            "p3d": {
              "x": 5.2485,
              "y": 0.9961,
              "z": -2.6688
            }
          },
          {
            "elSymbol": "C",
            "p3d": {
              "x": 1.6389,
              "y": 2.9732,
              "z": -0.4581
            }
          },
          {
            "elSymbol": "H",
            "p3d": {
              "x": 2.3787,
              "y": 3.6649,
              "z": -0.0604
            }
          },
          {
            "elSymbol": "H",
            "p3d": {
              "x": 1.0049,
              "y": 2.601,
              "z": 0.3676
            }
          },
          {
            "elSymbol": "H",
            "p3d": {
              "x": 1.0013,
              "y": 3.4961,
              "z": -1.199
            }
          },
          {
            "elSymbol": "C",
            "p3d": {
              "x": 1.6397,
              "y": -1.8757,
              "z": -1.9164
            }
          },
          {
            "elSymbol": "H",
            "p3d": {
              "x": 2.3747,
              "y": -2.6603,
              "z": -1.9613
            }
          },
          {
            "elSymbol": "H",
            "p3d": {
              "x": 1.0044,
              "y": -1.9015,
              "z": -2.8054
            }
          },
          {
            "elSymbol": "H",
            "p3d": {
              "x": 1.0057,
              "y": -2.0243,
              "z": -1.0149
            }
          }
        ],
        "bonds": [
          {
            "atomIds": [
              0,
              3
            ],
            "bo": "SINGLE"
          },
          {
            "atomIds": [
              3,
              4
            ],
            "bo": "DOUBLE"
          },
          {
            "atomIds": [
              1,
              4
            ],
            "bo": "SINGLE"
          },
          {
            "atomIds": [
              1,
              5
            ],
            "bo": "DOUBLE"
          },
          {
            "atomIds": [
              2,
              5
            ],
            "bo": "SINGLE"
          },
          {
            "atomIds": [
              0,
              2
            ],
            "bo": "DOUBLE"
          },
          {
            "atomIds": [
              4,
              6
            ],
            "bo": "SINGLE"
          },
          {
            "atomIds": [
              5,
              7
            ],
            "bo": "SINGLE"
          },
          {
            "atomIds": [
              1,
              8
            ],
            "bo": "SINGLE"
          },
          {
            "atomIds": [
              9,
              10
            ],
            "bo": "SINGLE"
          },
          {
            "atomIds": [
              9,
              11
            ],
            "bo": "SINGLE"
          },
          {
            "atomIds": [
              9,
              12
            ],
            "bo": "SINGLE"
          },
          {
            "atomIds": [
              2,
              9
            ],
            "bo": "SINGLE"
          },
          {
            "atomIds": [
              13,
              14
            ],
            "bo": "SINGLE"
          },
          {
            "atomIds": [
              13,
              15
            ],
            "bo": "SINGLE"
          },
          {
            "atomIds": [
              13,
              16
            ],
            "bo": "SINGLE"
          },
          {
            "atomIds": [
              3,
              13
            ],
            "bo": "SINGLE"
          }
        ]
      },
      "vertexId": 464488,
      "buildingBlockId": 37,
      "buildingBlockType": "FRAGMENT",
      "isRCV": false,
      "properties": {
        "ATTACHMENT_POINTS": "1#SubArL:1:SINGLE:0.2957%0.3816%-0.6358 "
      },
      "uniquefyingPropertyKeys": [],
      "allowedMutationTypes": [
        "DELETE",
        "EXTEND",
        "CHANGEBRANCH",
        "CHANGELINK",
        "ADDLINK",
        "DELETELINK",
        "DELETECHAIN"
      ],
      "vertexType": "MolecularFragment"
    }
  ],
  "gEdges": [
    {
      "srcAPID": 561253,
      "trgAPID": 561256,
      "bondType": "SINGLE"
    },
    {
      "srcAPID": 561255,
      "trgAPID": 561260,
      "bondType": "SINGLE"
    },
    {
      "srcAPID": 561254,
      "trgAPID": 561261,
      "bondType": "SINGLE"
    },
    {
      "srcAPID": 561257,
      "trgAPID": 561262,
      "bondType": "SINGLE"
    },
    {
      "srcAPID": 561259,
      "trgAPID": 561264,
      "bondType": "SINGLE"
    },
    {
      "srcAPID": 561258,
      "trgAPID": 561265,
      "bondType": "SINGLE"
    },
    {
      "srcAPID": 561263,
      "trgAPID": 561294,
      "bondType": "SINGLE"
    }
  ],
  "gRings": [],
  "symVertices": [
    {
      "symIds": [
        296334,
        296318
      ]
    }
  ]
}

> <SMILES>
[Pt](C#O)(Cl)([P](OC=1C(=C(C(=C(C1C([H])([H])[H])[H])[H])[H])C([H])([H])[H])(C([H])([H])[H])C([H])([H])[H])OC([H])([H])[H]

$$$$
