M00014860
  CDK     04222213583D

 56 58  0  0  0  0  0  0  0  0999 V2000
   -2.1102    0.0163    0.0490 Pt  0  0  0  0  0  0  0  0  0  0  0  0
   -4.0276    0.0311    0.0927 C   0  0  0  0  0  0  0  0  0  0  0  0
   -5.1724    0.0399    0.1186 O   0  0  0  0  0  0  0  0  0  0  0  0
   -2.0696    0.4401    2.3409 S   0  0  0  0  0  0  0  0  0  0  0  0
   -2.4468    2.2152    2.2850 C   0  0  0  0  0  0  0  0  0  0  0  0
   -3.4060    2.4070    2.7763 H   0  0  0  0  0  0  0  0  0  0  0  0
   -2.4922    2.5769    1.2504 H   0  0  0  0  0  0  0  0  0  0  0  0
   -1.6657    2.7755    2.8101 H   0  0  0  0  0  0  0  0  0  0  0  0
    0.6844   -1.1256   -0.0471 N   0  0  0  0  0  0  0  0  0  0  0  0
   -0.0974    0.0005    0.0028 C   0  0  1  0  0  0  0  0  0  0  0  0
    0.7035    1.1143    0.0156 N   0  0  0  0  0  0  0  0  0  0  0  0
    2.1697    0.7671   -0.0724 C   0  0  1  0  0  0  0  0  0  0  0  0
    2.1584   -0.8018   -0.0286 C   0  0  1  0  0  0  0  0  0  0  0  0
    2.6964    1.1970    0.8234 H   0  0  0  0  0  0  0  0  0  0  0  0
    2.6354   -1.2396   -0.9478 H   0  0  0  0  0  0  0  0  0  0  0  0
    2.8234   -1.3581    1.2213 C   0  0  0  0  0  0  0  0  0  0  0  0
    3.8892   -1.1060    1.2583 H   0  0  0  0  0  0  0  0  0  0  0  0
    2.3561   -0.9832    2.1436 H   0  0  0  0  0  0  0  0  0  0  0  0
    2.7440   -2.4547    1.2621 H   0  0  0  0  0  0  0  0  0  0  0  0
    0.2095    2.4674    0.0879 C   0  0  0  0  0  0  0  0  0  0  0  0
   -0.7620    5.0830    0.0851 C   0  0  0  0  0  0  0  0  0  0  0  0
    0.6442    3.3630    1.0914 C   0  0  0  0  0  0  0  0  0  0  0  0
   -0.7380    2.8624   -0.8751 C   0  0  0  0  0  0  0  0  0  0  0  0
   -1.2188    4.1717   -0.8726 C   0  0  0  0  0  0  0  0  0  0  0  0
    0.1539    4.6788    1.0578 C   0  0  0  0  0  0  0  0  0  0  0  0
   -1.0955    2.1452   -1.6234 H   0  0  0  0  0  0  0  0  0  0  0  0
   -1.9493    4.4810   -1.6200 H   0  0  0  0  0  0  0  0  0  0  0  0
    0.4852    5.3922    1.8122 H   0  0  0  0  0  0  0  0  0  0  0  0
   -1.1288    6.1089    0.0782 H   0  0  0  0  0  0  0  0  0  0  0  0
    1.5483    2.9402    2.1998 C   0  0  0  0  0  0  0  0  0  0  0  0
    1.8451    3.7743    2.8486 H   0  0  0  0  0  0  0  0  0  0  0  0
    2.4749    2.4705    1.8310 H   0  0  0  0  0  0  0  0  0  0  0  0
    1.0402    2.1975    2.8414 H   0  0  0  0  0  0  0  0  0  0  0  0
    2.7838    1.3135   -1.3523 C   0  0  0  0  0  0  0  0  0  0  0  0
    3.8426    1.0446   -1.4394 H   0  0  0  0  0  0  0  0  0  0  0  0
    2.2677    0.9466   -2.2516 H   0  0  0  0  0  0  0  0  0  0  0  0
    2.7199    2.4113   -1.3896 H   0  0  0  0  0  0  0  0  0  0  0  0
    0.1669   -2.4709   -0.0954 C   0  0  0  0  0  0  0  0  0  0  0  0
   -0.8411   -5.0720   -0.0471 C   0  0  0  0  0  0  0  0  0  0  0  0
    0.5371   -3.3706   -1.1209 C   0  0  0  0  0  0  0  0  0  0  0  0
   -0.7364   -2.8539    0.9136 C   0  0  0  0  0  0  0  0  0  0  0  0
   -1.2358   -4.1562    0.9336 C   0  0  0  0  0  0  0  0  0  0  0  0
    0.0302   -4.6792   -1.0644 C   0  0  0  0  0  0  0  0  0  0  0  0
   -1.0453   -2.1330    1.6797 H   0  0  0  0  0  0  0  0  0  0  0  0
   -1.9322   -4.4563    1.7164 H   0  0  0  0  0  0  0  0  0  0  0  0
    0.3127   -5.3958   -1.8354 H   0  0  0  0  0  0  0  0  0  0  0  0
   -1.2221   -6.0925   -0.0229 H   0  0  0  0  0  0  0  0  0  0  0  0
    1.3909   -2.9573   -2.2721 C   0  0  0  0  0  0  0  0  0  0  0  0
    1.6272   -3.7899   -2.9473 H   0  0  0  0  0  0  0  0  0  0  0  0
    2.3492   -2.5195   -1.9482 H   0  0  0  0  0  0  0  0  0  0  0  0
    0.8700   -2.1916   -2.8754 H   0  0  0  0  0  0  0  0  0  0  0  0
   -2.1830   -0.4081   -2.2422 S   0  0  0  0  0  0  0  0  0  0  0  0
   -2.5859   -2.1768   -2.1664 C   0  0  0  0  0  0  0  0  0  0  0  0
   -3.5742   -2.3523   -2.6030 H   0  0  0  0  0  0  0  0  0  0  0  0
   -2.5788   -2.5394   -1.1310 H   0  0  0  0  0  0  0  0  0  0  0  0
   -1.8448   -2.7489   -2.7351 H   0  0  0  0  0  0  0  0  0  0  0  0
  2  3  3  0  0  0  0
  1  2  1  0  0  0  0
  5  6  1  0  0  0  0
  5  7  1  0  0  0  0
  5  8  1  0  0  0  0
  4  5  1  0  0  0  0
  1  4  1  0  0  0  0
  9 10  1  0  0  0  0
 11 10  1  0  0  0  0
 12 11  1  0  0  0  0
 12 13  1  0  0  0  0
 13  9  1  0  0  0  0
 14 12  1  0  0  0  0
 15 13  1  0  0  0  0
  1 10  1  0  0  0  0
 16 17  1  0  0  0  0
 16 18  1  0  0  0  0
 16 19  1  0  0  0  0
 13 16  1  0  0  0  0
 20 23  1  0  0  0  0
 23 24  2  0  0  0  0
 21 24  1  0  0  0  0
 21 25  2  0  0  0  0
 22 25  1  0  0  0  0
 20 22  2  0  0  0  0
 24 27  1  0  0  0  0
 25 28  1  0  0  0  0
 21 29  1  0  0  0  0
 23 26  1  0  0  0  0
 30 31  1  0  0  0  0
 30 32  1  0  0  0  0
 30 33  1  0  0  0  0
 22 30  1  0  0  0  0
 11 20  1  0  0  0  0
 34 35  1  0  0  0  0
 34 36  1  0  0  0  0
 34 37  1  0  0  0  0
 12 34  1  0  0  0  0
 38 41  1  0  0  0  0
 41 42  2  0  0  0  0
 39 42  1  0  0  0  0
 39 43  2  0  0  0  0
 40 43  1  0  0  0  0
 38 40  2  0  0  0  0
 42 45  1  0  0  0  0
 43 46  1  0  0  0  0
 39 47  1  0  0  0  0
 41 44  1  0  0  0  0
 48 49  1  0  0  0  0
 48 50  1  0  0  0  0
 48 51  1  0  0  0  0
 40 48  1  0  0  0  0
  9 38  1  0  0  0  0
 53 54  1  0  0  0  0
 53 55  1  0  0  0  0
 53 56  1  0  0  0  0
 52 53  1  0  0  0  0
  1 52  1  0  0  0  0
M  END
> <PM6_ENERGY>
90.027

> <UID>
MVONJJWAJSEVJD-RLGPICPGNA-L

> <FITNESS>
1.14513

> <GCODE>
16095

> <GraphENC>
16095 72_1_0,79_64_1,94_16_1,85_64_1,330606_31_1,330607_37_1,329672_31_1,329666_37_1, 72_0_79_0_SINGLE_Xlig:0_Xlig:1,72_2_94_1_SINGLE_scaff:0_MImidazolidinylidene:1,72_1_85_0_SINGLE_Xlig:0_Xlig:1,94_4_330606_0_SINGLE_LImidazolidinylideneSubCL:0_SubRS:1,94_2_330607_0_SINGLE_LImidazolidinylideneSubNL:0_SubArM:1,94_3_329672_0_SINGLE_LImidazolidinylideneSubCL:0_SubRS:1,94_0_329666_0_SINGLE_LImidazolidinylideneSubNL:0_SubArM:1, SymmetricSet [symIds=[330607, 329666]] SymmetricSet [symIds=[330606, 329672]] 

> <GraphJson>
{
  "graphId": 16095,
  "gVertices": [
    {
      "lstAPs": [
        {
          "id": 430749,
          "atomPositionNumber": 0,
          "atomPositionNumberInMol": 0,
          "apClass": {
            "rule": "Xlig",
            "subClass": 0,
            "bndTyp": "SINGLE"
          },
          "dirVec": {
            "x": -2.3339,
            "y": -0.0087,
            "z": 0.8172
          }
        },
        {
          "id": 430750,
          "atomPositionNumber": 0,
          "atomPositionNumberInMol": 0,
          "apClass": {
            "rule": "Xlig",
            "subClass": 0,
            "bndTyp": "SINGLE"
          },
          "dirVec": {
            "x": 2.336,
            "y": -5.0E-4,
            "z": 0.829
          }
        },
        {
          "id": 430751,
          "atomPositionNumber": 0,
          "atomPositionNumberInMol": 0,
          "apClass": {
            "rule": "scaff",
            "subClass": 0,
            "bndTyp": "SINGLE"
          },
          "dirVec": {
            "x": -0.0095,
            "y": 0.0046,
            "z": -1.7113
          }
        }
      ],
      "lstSymAPs": [
        {
          "symIds": [
            0,
            1
          ]
        }
      ],
      "mol": {
        "atoms": [
          {
            "elSymbol": "Pt",
            "p3d": {
              "x": -0.0098,
              "y": 0.0049,
              "z": 0.6289
            }
          },
          {
            "elSymbol": "C",
            "p3d": {
              "x": -6.0E-4,
              "y": 0.0016,
              "z": 2.5609
            }
          },
          {
            "elSymbol": "O",
            "p3d": {
              "x": 0.0025,
              "y": -0.0041,
              "z": 3.6974
            }
          },
          {
            "elSymbol": "Du",
            "p3d": {
              "x": -0.007,
              "y": 1.0013,
              "z": 0.6372
            }
          },
          {
            "elSymbol": "Du",
            "p3d": {
              "x": -0.0014,
              "y": 0.9902,
              "z": 2.5698
            }
          }
        ],
        "bonds": [
          {
            "atomIds": [
              1,
              2
            ],
            "bo": "TRIPLE"
          },
          {
            "atomIds": [
              0,
              1
            ],
            "bo": "SINGLE"
          },
          {
            "atomIds": [
              3,
              0
            ],
            "bo": "SINGLE"
          },
          {
            "atomIds": [
              4,
              1
            ],
            "bo": "SINGLE"
          }
        ]
      },
      "vertexId": 72,
      "buildingBlockId": 0,
      "buildingBlockType": "SCAFFOLD",
      "isRCV": false,
      "properties": {
        "ATTACHMENT_POINTS": "1#Xlig:0:SINGLE:-2.3339%-0.0087%0.8172,Xlig:0:SINGLE:2.3360%-0.0005%0.8290,scaff:0:SINGLE:-0.0095%0.0046%-1.7113 "
      },
      "uniquefyingPropertyKeys": [],
      "allowedMutationTypes": [
        "DELETE",
        "EXTEND",
        "CHANGEBRANCH",
        "CHANGELINK",
        "ADDLINK",
        "DELETELINK",
        "DELETECHAIN"
      ],
      "vertexType": "MolecularFragment"
    },
    {
      "lstAPs": [
        {
          "id": 430752,
          "atomPositionNumber": 0,
          "atomPositionNumberInMol": 5,
          "apClass": {
            "rule": "Xlig",
            "subClass": 1,
            "bndTyp": "SINGLE"
          },
          "dirVec": {
            "x": -0.102,
            "y": 0.0185,
            "z": -1.0265
          }
        }
      ],
      "lstSymAPs": [],
      "mol": {
        "atoms": [
          {
            "elSymbol": "S",
            "p3d": {
              "x": -0.3267,
              "y": 2.3403,
              "z": -1.0022
            }
          },
          {
            "elSymbol": "C",
            "p3d": {
              "x": -0.626,
              "y": 2.4866,
              "z": 0.7805
            }
          },
          {
            "elSymbol": "H",
            "p3d": {
              "x": 0.1766,
              "y": 3.089,
              "z": 1.2414
            }
          },
          {
            "elSymbol": "H",
            "p3d": {
              "x": -0.651,
              "y": 1.5065,
              "z": 1.2643
            }
          },
          {
            "elSymbol": "H",
            "p3d": {
              "x": -1.5658,
              "y": 2.981,
              "z": 0.9515
            }
          }
        ],
        "bonds": [
          {
            "atomIds": [
              1,
              2
            ],
            "bo": "SINGLE"
          },
          {
            "atomIds": [
              1,
              3
            ],
            "bo": "SINGLE"
          },
          {
            "atomIds": [
              1,
              4
            ],
            "bo": "SINGLE"
          },
          {
            "atomIds": [
              0,
              1
            ],
            "bo": "SINGLE"
          }
        ]
      },
      "vertexId": 79,
      "buildingBlockId": 63,
      "buildingBlockType": "FRAGMENT",
      "isRCV": false,
      "properties": {
        "ATTACHMENT_POINTS": "1#Xlig:1:SINGLE:-0.1020%0.0185%-1.0265 "
      },
      "uniquefyingPropertyKeys": [],
      "allowedMutationTypes": [
        "DELETE",
        "EXTEND",
        "CHANGEBRANCH",
        "CHANGELINK",
        "ADDLINK",
        "DELETELINK",
        "DELETECHAIN"
      ],
      "vertexType": "MolecularFragment"
    },
    {
      "lstAPs": [
        {
          "id": 430753,
          "atomPositionNumber": 0,
          "atomPositionNumberInMol": 10,
          "apClass": {
            "rule": "LImidazolidinylideneSubNL",
            "subClass": 0,
            "bndTyp": "SINGLE"
          },
          "dirVec": {
            "x": 1.1053,
            "y": -4.2806,
            "z": -0.0746
          }
        },
        {
          "id": 430754,
          "atomPositionNumber": 1,
          "atomPositionNumberInMol": 11,
          "apClass": {
            "rule": "MImidazolidinylidene",
            "subClass": 1,
            "bndTyp": "SINGLE"
          },
          "dirVec": {
            "x": 0.0066,
            "y": -1.1634,
            "z": -0.2139
          }
        },
        {
          "id": 430755,
          "atomPositionNumber": 2,
          "atomPositionNumberInMol": 12,
          "apClass": {
            "rule": "LImidazolidinylideneSubNL",
            "subClass": 0,
            "bndTyp": "SINGLE"
          },
          "dirVec": {
            "x": -0.4116,
            "y": -1.1759,
            "z": -3.5324
          }
        },
        {
          "id": 430756,
          "atomPositionNumber": 3,
          "atomPositionNumberInMol": 13,
          "apClass": {
            "rule": "LImidazolidinylideneSubCL",
            "subClass": 0,
            "bndTyp": "SINGLE"
          },
          "dirVec": {
            "x": -1.1896,
            "y": -4.3794,
            "z": -4.1809
          }
        },
        {
          "id": 430757,
          "atomPositionNumber": 4,
          "atomPositionNumberInMol": 14,
          "apClass": {
            "rule": "LImidazolidinylideneSubCL",
            "subClass": 0,
            "bndTyp": "SINGLE"
          },
          "dirVec": {
            "x": 2.4239,
            "y": -4.9262,
            "z": -3.0604
          }
        }
      ],
      "lstSymAPs": [
        {
          "symIds": [
            0,
            2
          ]
        },
        {
          "symIds": [
            3,
            4
          ]
        }
      ],
      "mol": {
        "atoms": [
          {
            "elSymbol": "N",
            "p3d": {
              "x": 0.8214,
              "y": -3.7977,
              "z": -1.429
            }
          },
          {
            "elSymbol": "C",
            "p3d": {
              "x": 0.3058,
              "y": -2.5822,
              "z": -1.663
            }
          },
          {
            "elSymbol": "N",
            "p3d": {
              "x": -0.0048,
              "y": -2.4602,
              "z": -2.9405
            }
          },
          {
            "elSymbol": "C",
            "p3d": {
              "x": 0.1672,
              "y": -3.7242,
              "z": -3.6717
            }
          },
          {
            "elSymbol": "C",
            "p3d": {
              "x": 0.9512,
              "y": -4.5908,
              "z": -2.682
            }
          },
          {
            "elSymbol": "H",
            "p3d": {
              "x": 0.6828,
              "y": -3.6212,
              "z": -4.6265
            }
          },
          {
            "elSymbol": "H",
            "p3d": {
              "x": 0.5478,
              "y": -5.6128,
              "z": -2.6141
            }
          }
        ],
        "bonds": [
          {
            "atomIds": [
              0,
              1
            ],
            "bo": "SINGLE"
          },
          {
            "atomIds": [
              2,
              1
            ],
            "bo": "SINGLE"
          },
          {
            "atomIds": [
              3,
              2
            ],
            "bo": "SINGLE"
          },
          {
            "atomIds": [
              3,
              4
            ],
            "bo": "SINGLE"
          },
          {
            "atomIds": [
              4,
              0
            ],
            "bo": "SINGLE"
          },
          {
            "atomIds": [
              5,
              3
            ],
            "bo": "SINGLE"
          },
          {
            "atomIds": [
              6,
              4
            ],
            "bo": "SINGLE"
          }
        ]
      },
      "vertexId": 94,
      "buildingBlockId": 15,
      "buildingBlockType": "FRAGMENT",
      "isRCV": false,
      "properties": {
        "ATTACHMENT_POINTS": "1#LImidazolidinylideneSubNL:0:SINGLE:1.1053%-4.2806%-0.0746 2#MImidazolidinylidene:1:SINGLE:0.0066%-1.1634%-0.2139 3#LImidazolidinylideneSubNL:0:SINGLE:-0.4116%-1.1759%-3.5324 4#LImidazolidinylideneSubCL:0:SINGLE:-1.1896%-4.3794%-4.1809 5#LImidazolidinylideneSubCL:0:SINGLE:2.4239%-4.9262%-3.0604 "
      },
      "uniquefyingPropertyKeys": [],
      "allowedMutationTypes": [
        "DELETE",
        "EXTEND",
        "CHANGEBRANCH",
        "CHANGELINK",
        "ADDLINK",
        "DELETELINK",
        "DELETECHAIN"
      ],
      "vertexType": "MolecularFragment"
    },
    {
      "lstAPs": [
        {
          "id": 430758,
          "atomPositionNumber": 0,
          "atomPositionNumberInMol": 53,
          "apClass": {
            "rule": "Xlig",
            "subClass": 1,
            "bndTyp": "SINGLE"
          },
          "dirVec": {
            "x": -0.102,
            "y": 0.0185,
            "z": -1.0265
          }
        }
      ],
      "lstSymAPs": [],
      "mol": {
        "atoms": [
          {
            "elSymbol": "S",
            "p3d": {
              "x": -0.3267,
              "y": 2.3403,
              "z": -1.0022
            }
          },
          {
            "elSymbol": "C",
            "p3d": {
              "x": -0.626,
              "y": 2.4866,
              "z": 0.7805
            }
          },
          {
            "elSymbol": "H",
            "p3d": {
              "x": 0.1766,
              "y": 3.089,
              "z": 1.2414
            }
          },
          {
            "elSymbol": "H",
            "p3d": {
              "x": -0.651,
              "y": 1.5065,
              "z": 1.2643
            }
          },
          {
            "elSymbol": "H",
            "p3d": {
              "x": -1.5658,
              "y": 2.981,
              "z": 0.9515
            }
          }
        ],
        "bonds": [
          {
            "atomIds": [
              1,
              2
            ],
            "bo": "SINGLE"
          },
          {
            "atomIds": [
              1,
              3
            ],
            "bo": "SINGLE"
          },
          {
            "atomIds": [
              1,
              4
            ],
            "bo": "SINGLE"
          },
          {
            "atomIds": [
              0,
              1
            ],
            "bo": "SINGLE"
          }
        ]
      },
      "vertexId": 85,
      "buildingBlockId": 63,
      "buildingBlockType": "FRAGMENT",
      "isRCV": false,
      "properties": {
        "ATTACHMENT_POINTS": "1#Xlig:1:SINGLE:-0.1020%0.0185%-1.0265 "
      },
      "uniquefyingPropertyKeys": [],
      "allowedMutationTypes": [
        "DELETE",
        "EXTEND",
        "CHANGEBRANCH",
        "CHANGELINK",
        "ADDLINK",
        "DELETELINK",
        "DELETECHAIN"
      ],
      "vertexType": "MolecularFragment"
    },
    {
      "lstAPs": [
        {
          "id": 430801,
          "atomPositionNumber": 0,
          "atomPositionNumberInMol": 17,
          "apClass": {
            "rule": "SubRS",
            "subClass": 1,
            "bndTyp": "SINGLE"
          },
          "dirVec": {
            "x": 0.2865,
            "y": 0.3959,
            "z": -0.6387
          }
        }
      ],
      "lstSymAPs": [],
      "mol": {
        "atoms": [
          {
            "elSymbol": "C",
            "p3d": {
              "x": 0.3969,
              "y": -0.0496,
              "z": 0.8235
            }
          },
          {
            "elSymbol": "H",
            "p3d": {
              "x": -0.6146,
              "y": -0.163,
              "z": 1.2402
            }
          },
          {
            "elSymbol": "H",
            "p3d": {
              "x": 0.9335,
              "y": -0.9979,
              "z": 0.8998
            }
          },
          {
            "elSymbol": "H",
            "p3d": {
              "x": 0.9252,
              "y": 0.7237,
              "z": 1.3995
            }
          }
        ],
        "bonds": [
          {
            "atomIds": [
              0,
              1
            ],
            "bo": "SINGLE"
          },
          {
            "atomIds": [
              0,
              2
            ],
            "bo": "SINGLE"
          },
          {
            "atomIds": [
              0,
              3
            ],
            "bo": "SINGLE"
          }
        ]
      },
      "vertexId": 330606,
      "buildingBlockId": 30,
      "buildingBlockType": "FRAGMENT",
      "isRCV": false,
      "properties": {
        "ATTACHMENT_POINTS": "1#SubRS:1:SINGLE:0.2865%0.3959%-0.6387 "
      },
      "uniquefyingPropertyKeys": [],
      "allowedMutationTypes": [
        "DELETE",
        "EXTEND",
        "CHANGEBRANCH",
        "CHANGELINK",
        "ADDLINK",
        "DELETELINK",
        "DELETECHAIN"
      ],
      "vertexType": "MolecularFragment"
    },
    {
      "lstAPs": [
        {
          "id": 430802,
          "atomPositionNumber": 0,
          "atomPositionNumberInMol": 21,
          "apClass": {
            "rule": "SubArM",
            "subClass": 1,
            "bndTyp": "SINGLE"
          },
          "dirVec": {
            "x": 0.3016,
            "y": 0.3831,
            "z": -0.6449
          }
        }
      ],
      "lstSymAPs": [],
      "mol": {
        "atoms": [
          {
            "elSymbol": "C",
            "p3d": {
              "x": 1.7096,
              "y": 0.5525,
              "z": -1.2136
            }
          },
          {
            "elSymbol": "C",
            "p3d": {
              "x": 4.2502,
              "y": 0.8767,
              "z": -2.2636
            }
          },
          {
            "elSymbol": "C",
            "p3d": {
              "x": 2.3368,
              "y": 1.7899,
              "z": -1.1199
            }
          },
          {
            "elSymbol": "C",
            "p3d": {
              "x": 2.344,
              "y": -0.5151,
              "z": -1.819
            }
          },
          {
            "elSymbol": "C",
            "p3d": {
              "x": 3.6162,
              "y": -0.3625,
              "z": -2.3439
            }
          },
          {
            "elSymbol": "C",
            "p3d": {
              "x": 3.6039,
              "y": 1.9353,
              "z": -1.6584
            }
          },
          {
            "elSymbol": "H",
            "p3d": {
              "x": 1.8411,
              "y": -1.493,
              "z": -1.8837
            }
          },
          {
            "elSymbol": "H",
            "p3d": {
              "x": 4.113,
              "y": -1.2006,
              "z": -2.8069
            }
          },
          {
            "elSymbol": "H",
            "p3d": {
              "x": 4.1107,
              "y": 2.9115,
              "z": -1.5913
            }
          },
          {
            "elSymbol": "H",
            "p3d": {
              "x": 5.2516,
              "y": 0.992,
              "z": -2.67
            }
          },
          {
            "elSymbol": "C",
            "p3d": {
              "x": 1.6301,
              "y": 2.9729,
              "z": -0.4606
            }
          },
          {
            "elSymbol": "H",
            "p3d": {
              "x": 2.3743,
              "y": 3.6775,
              "z": -0.0646
            }
          },
          {
            "elSymbol": "H",
            "p3d": {
              "x": 1.0016,
              "y": 2.6144,
              "z": 0.3512
            }
          },
          {
            "elSymbol": "H",
            "p3d": {
              "x": 1.0097,
              "y": 3.4845,
              "z": -1.1971
            }
          }
        ],
        "bonds": [
          {
            "atomIds": [
              0,
              3
            ],
            "bo": "SINGLE"
          },
          {
            "atomIds": [
              3,
              4
            ],
            "bo": "DOUBLE"
          },
          {
            "atomIds": [
              1,
              4
            ],
            "bo": "SINGLE"
          },
          {
            "atomIds": [
              1,
              5
            ],
            "bo": "DOUBLE"
          },
          {
            "atomIds": [
              2,
              5
            ],
            "bo": "SINGLE"
          },
          {
            "atomIds": [
              0,
              2
            ],
            "bo": "DOUBLE"
          },
          {
            "atomIds": [
              4,
              7
            ],
            "bo": "SINGLE"
          },
          {
            "atomIds": [
              5,
              8
            ],
            "bo": "SINGLE"
          },
          {
            "atomIds": [
              1,
              9
            ],
            "bo": "SINGLE"
          },
          {
            "atomIds": [
              3,
              6
            ],
            "bo": "SINGLE"
          },
          {
            "atomIds": [
              10,
              11
            ],
            "bo": "SINGLE"
          },
          {
            "atomIds": [
              10,
              12
            ],
            "bo": "SINGLE"
          },
          {
            "atomIds": [
              10,
              13
            ],
            "bo": "SINGLE"
          },
          {
            "atomIds": [
              2,
              10
            ],
            "bo": "SINGLE"
          }
        ]
      },
      "vertexId": 330607,
      "buildingBlockId": 36,
      "buildingBlockType": "FRAGMENT",
      "isRCV": false,
      "properties": {
        "ATTACHMENT_POINTS": "1#SubArM:1:SINGLE:0.3016%0.3831%-0.6449 "
      },
      "uniquefyingPropertyKeys": [],
      "allowedMutationTypes": [
        "DELETE",
        "EXTEND",
        "CHANGEBRANCH",
        "CHANGELINK",
        "ADDLINK",
        "DELETELINK",
        "DELETECHAIN"
      ],
      "vertexType": "MolecularFragment"
    },
    {
      "lstAPs": [
        {
          "id": 430803,
          "atomPositionNumber": 0,
          "atomPositionNumberInMol": 35,
          "apClass": {
            "rule": "SubRS",
            "subClass": 1,
            "bndTyp": "SINGLE"
          },
          "dirVec": {
            "x": 0.2865,
            "y": 0.3959,
            "z": -0.6387
          }
        }
      ],
      "lstSymAPs": [],
      "mol": {
        "atoms": [
          {
            "elSymbol": "C",
            "p3d": {
              "x": 0.3969,
              "y": -0.0496,
              "z": 0.8235
            }
          },
          {
            "elSymbol": "H",
            "p3d": {
              "x": -0.6146,
              "y": -0.163,
              "z": 1.2402
            }
          },
          {
            "elSymbol": "H",
            "p3d": {
              "x": 0.9335,
              "y": -0.9979,
              "z": 0.8998
            }
          },
          {
            "elSymbol": "H",
            "p3d": {
              "x": 0.9252,
              "y": 0.7237,
              "z": 1.3995
            }
          }
        ],
        "bonds": [
          {
            "atomIds": [
              0,
              1
            ],
            "bo": "SINGLE"
          },
          {
            "atomIds": [
              0,
              2
            ],
            "bo": "SINGLE"
          },
          {
            "atomIds": [
              0,
              3
            ],
            "bo": "SINGLE"
          }
        ]
      },
      "vertexId": 329672,
      "buildingBlockId": 30,
      "buildingBlockType": "FRAGMENT",
      "isRCV": false,
      "properties": {
        "ATTACHMENT_POINTS": "1#SubRS:1:SINGLE:0.2865%0.3959%-0.6387 "
      },
      "uniquefyingPropertyKeys": [],
      "allowedMutationTypes": [
        "DELETE",
        "EXTEND",
        "CHANGEBRANCH",
        "CHANGELINK",
        "ADDLINK",
        "DELETELINK",
        "DELETECHAIN"
      ],
      "vertexType": "MolecularFragment"
    },
    {
      "lstAPs": [
        {
          "id": 430804,
          "atomPositionNumber": 0,
          "atomPositionNumberInMol": 39,
          "apClass": {
            "rule": "SubArM",
            "subClass": 1,
            "bndTyp": "SINGLE"
          },
          "dirVec": {
            "x": 0.3016,
            "y": 0.3831,
            "z": -0.6449
          }
        }
      ],
      "lstSymAPs": [],
      "mol": {
        "atoms": [
          {
            "elSymbol": "C",
            "p3d": {
              "x": 1.7096,
              "y": 0.5525,
              "z": -1.2136
            }
          },
          {
            "elSymbol": "C",
            "p3d": {
              "x": 4.2502,
              "y": 0.8767,
              "z": -2.2636
            }
          },
          {
            "elSymbol": "C",
            "p3d": {
              "x": 2.3368,
              "y": 1.7899,
              "z": -1.1199
            }
          },
          {
            "elSymbol": "C",
            "p3d": {
              "x": 2.344,
              "y": -0.5151,
              "z": -1.819
            }
          },
          {
            "elSymbol": "C",
            "p3d": {
              "x": 3.6162,
              "y": -0.3625,
              "z": -2.3439
            }
          },
          {
            "elSymbol": "C",
            "p3d": {
              "x": 3.6039,
              "y": 1.9353,
              "z": -1.6584
            }
          },
          {
            "elSymbol": "H",
            "p3d": {
              "x": 1.8411,
              "y": -1.493,
              "z": -1.8837
            }
          },
          {
            "elSymbol": "H",
            "p3d": {
              "x": 4.113,
              "y": -1.2006,
              "z": -2.8069
            }
          },
          {
            "elSymbol": "H",
            "p3d": {
              "x": 4.1107,
              "y": 2.9115,
              "z": -1.5913
            }
          },
          {
            "elSymbol": "H",
            "p3d": {
              "x": 5.2516,
              "y": 0.992,
              "z": -2.67
            }
          },
          {
            "elSymbol": "C",
            "p3d": {
              "x": 1.6301,
              "y": 2.9729,
              "z": -0.4606
            }
          },
          {
            "elSymbol": "H",
            "p3d": {
              "x": 2.3743,
              "y": 3.6775,
              "z": -0.0646
            }
          },
          {
            "elSymbol": "H",
            "p3d": {
              "x": 1.0016,
              "y": 2.6144,
              "z": 0.3512
            }
          },
          {
            "elSymbol": "H",
            "p3d": {
              "x": 1.0097,
              "y": 3.4845,
              "z": -1.1971
            }
          }
        ],
        "bonds": [
          {
            "atomIds": [
              0,
              3
            ],
            "bo": "SINGLE"
          },
          {
            "atomIds": [
              3,
              4
            ],
            "bo": "DOUBLE"
          },
          {
            "atomIds": [
              1,
              4
            ],
            "bo": "SINGLE"
          },
          {
            "atomIds": [
              1,
              5
            ],
            "bo": "DOUBLE"
          },
          {
            "atomIds": [
              2,
              5
            ],
            "bo": "SINGLE"
          },
          {
            "atomIds": [
              0,
              2
            ],
            "bo": "DOUBLE"
          },
          {
            "atomIds": [
              4,
              7
            ],
            "bo": "SINGLE"
          },
          {
            "atomIds": [
              5,
              8
            ],
            "bo": "SINGLE"
          },
          {
            "atomIds": [
              1,
              9
            ],
            "bo": "SINGLE"
          },
          {
            "atomIds": [
              3,
              6
            ],
            "bo": "SINGLE"
          },
          {
            "atomIds": [
              10,
              11
            ],
            "bo": "SINGLE"
          },
          {
            "atomIds": [
              10,
              12
            ],
            "bo": "SINGLE"
          },
          {
            "atomIds": [
              10,
              13
            ],
            "bo": "SINGLE"
          },
          {
            "atomIds": [
              2,
              10
            ],
            "bo": "SINGLE"
          }
        ]
      },
      "vertexId": 329666,
      "buildingBlockId": 36,
      "buildingBlockType": "FRAGMENT",
      "isRCV": false,
      "properties": {
        "ATTACHMENT_POINTS": "1#SubArM:1:SINGLE:0.3016%0.3831%-0.6449 "
      },
      "uniquefyingPropertyKeys": [],
      "allowedMutationTypes": [
        "DELETE",
        "EXTEND",
        "CHANGEBRANCH",
        "CHANGELINK",
        "ADDLINK",
        "DELETELINK",
        "DELETECHAIN"
      ],
      "vertexType": "MolecularFragment"
    }
  ],
  "gEdges": [
    {
      "srcAPID": 430749,
      "trgAPID": 430752,
      "bondType": "SINGLE"
    },
    {
      "srcAPID": 430751,
      "trgAPID": 430754,
      "bondType": "SINGLE"
    },
    {
      "srcAPID": 430750,
      "trgAPID": 430758,
      "bondType": "SINGLE"
    },
    {
      "srcAPID": 430757,
      "trgAPID": 430801,
      "bondType": "SINGLE"
    },
    {
      "srcAPID": 430755,
      "trgAPID": 430802,
      "bondType": "SINGLE"
    },
    {
      "srcAPID": 430756,
      "trgAPID": 430803,
      "bondType": "SINGLE"
    },
    {
      "srcAPID": 430753,
      "trgAPID": 430804,
      "bondType": "SINGLE"
    }
  ],
  "gRings": [],
  "symVertices": [
    {
      "symIds": [
        330607,
        329666
      ]
    },
    {
      "symIds": [
        330606,
        329672
      ]
    }
  ]
}

> <SMILES>
[Pt](C#O)(SC([H])([H])[H])([C]1N(C(C(N1C=2C(=C(C(=C(C2C([H])([H])[H])[H])[H])[H])[H])([H])C([H])([H])[H])([H])C([H])([H])[H])C=3C(=C(C(=C(C3C([H])([H])[H])[H])[H])[H])[H])SC([H])([H])[H]

$$$$
