M00021705
  CDK     04222216283D

 48 51  0  0  0  0  0  0  0  0999 V2000
   -2.6615    0.2727   -0.2265 Pt  0  0  0  0  0  0  0  0  0  0  0  0
   -4.6194    0.2483   -0.4394 C   0  0  0  0  0  0  0  0  0  0  0  0
   -5.7508    0.2220   -0.5690 O   0  0  0  0  0  0  0  0  0  0  0  0
   -2.7963    2.1699   -1.0164 O   0  0  0  0  0  0  0  0  0  0  0  0
   -2.4667    3.1684   -0.0802 C   0  0  0  0  0  0  0  0  0  0  0  0
   -2.9283    4.0945   -0.4520 H   0  0  0  0  0  0  0  0  0  0  0  0
   -1.3739    3.2860   -0.0356 H   0  0  0  0  0  0  0  0  0  0  0  0
   -2.8688    2.9121    0.9078 H   0  0  0  0  0  0  0  0  0  0  0  0
    0.5555   -0.9649    2.0941 C   0  0  0  0  0  0  0  0  0  0  0  0
   -0.1083   -1.9245    2.8640 C   0  0  0  0  0  0  0  0  0  0  0  0
   -0.7923   -2.6361    2.3889 H   0  0  0  0  0  0  0  0  0  0  0  0
    0.1341   -1.9569    4.2384 C   0  0  0  0  0  0  0  0  0  0  0  0
   -0.3745   -2.6971    4.8581 H   0  0  0  0  0  0  0  0  0  0  0  0
    1.0215   -1.0427    4.8182 C   0  0  0  0  0  0  0  0  0  0  0  0
    1.1969   -1.0663    5.8938 H   0  0  0  0  0  0  0  0  0  0  0  0
    1.6855   -0.1002    4.0294 C   0  0  0  0  0  0  0  0  0  0  0  0
    2.3723    0.6084    4.4947 H   0  0  0  0  0  0  0  0  0  0  0  0
    1.4751   -0.0470    2.6411 C   0  0  0  0  0  0  0  0  0  0  0  0
    2.1967    0.9262    1.8076 C   0  0  0  0  0  0  0  0  0  0  0  0
    3.5740    1.1479    1.9755 C   0  0  0  0  0  0  0  0  0  0  0  0
    4.1208    0.5778    2.7284 H   0  0  0  0  0  0  0  0  0  0  0  0
    4.2495    2.0797    1.1831 C   0  0  0  0  0  0  0  0  0  0  0  0
    5.3187    2.2359    1.3282 H   0  0  0  0  0  0  0  0  0  0  0  0
    3.5683    2.8107    0.2028 C   0  0  0  0  0  0  0  0  0  0  0  0
    4.1042    3.5359   -0.4105 H   0  0  0  0  0  0  0  0  0  0  0  0
    2.2010    2.6095    0.0017 C   0  0  0  0  0  0  0  0  0  0  0  0
    1.6463    3.1612   -0.7579 H   0  0  0  0  0  0  0  0  0  0  0  0
    1.5469    1.6732    0.8066 C   0  0  0  0  0  0  0  0  0  0  0  0
    0.3725   -1.0598    0.7044 O   0  0  0  0  0  0  0  0  0  0  0  0
    0.1484    1.5934    0.6546 O   0  0  0  0  0  0  0  0  0  0  0  0
   -0.4333    0.1980   -0.0389 P   0  0  0  0  0  0  0  0  0  0  0  0
    0.3507    0.0970   -1.5017 O   0  0  0  0  0  0  0  0  0  0  0  0
   -0.4602   -0.5448   -2.4807 C   0  0  0  0  0  0  0  0  0  0  0  0
   -1.8305   -1.7492   -4.5449 C   0  0  0  0  0  0  0  0  0  0  0  0
   -0.0350   -1.8192   -2.9029 C   0  0  0  0  0  0  0  0  0  0  0  0
   -1.5436    0.1376   -3.0457 C   0  0  0  0  0  0  0  0  0  0  0  0
   -2.2289   -0.4853   -4.0923 C   0  0  0  0  0  0  0  0  0  0  0  0
   -0.7479   -2.4098   -3.9584 C   0  0  0  0  0  0  0  0  0  0  0  0
   -1.8393    1.1444   -2.7066 H   0  0  0  0  0  0  0  0  0  0  0  0
   -3.0728    0.0219   -4.5597 H   0  0  0  0  0  0  0  0  0  0  0  0
   -0.4541   -3.3957   -4.3181 H   0  0  0  0  0  0  0  0  0  0  0  0
   -2.3721   -2.2247   -5.3629 H   0  0  0  0  0  0  0  0  0  0  0  0
    1.1071   -2.4995   -2.2360 C   0  0  0  0  0  0  0  0  0  0  0  0
    1.4709   -3.3721   -2.7917 H   0  0  0  0  0  0  0  0  0  0  0  0
    0.8243   -2.8481   -1.2265 H   0  0  0  0  0  0  0  0  0  0  0  0
    1.9585   -1.8136   -2.0968 H   0  0  0  0  0  0  0  0  0  0  0  0
   -2.6949   -1.5920    0.4262 C   0  0  0  0  0  0  0  0  0  0  0  0
   -2.7464   -2.6831    0.8035 N   0  0  0  0  0  0  0  0  0  0  0  0
  2  3  3  0  0  0  0
  1  2  1  0  0  0  0
  5  6  1  0  0  0  0
  5  7  1  0  0  0  0
  5  8  1  0  0  0  0
  4  5  1  0  0  0  0
  1  4  1  0  0  0  0
  9 10  2  0  0  0  0
 10 11  1  0  0  0  0
 12 10  1  0  0  0  0
 13 12  1  0  0  0  0
 14 12  2  0  0  0  0
 15 14  1  0  0  0  0
 16 14  1  0  0  0  0
 16 18  2  0  0  0  0
 17 16  1  0  0  0  0
 18  9  1  0  0  0  0
 19 18  1  0  0  0  0
 20 19  2  0  0  0  0
 21 20  1  0  0  0  0
 22 20  1  0  0  0  0
 23 22  1  0  0  0  0
 24 22  2  0  0  0  0
 25 24  1  0  0  0  0
 26 24  1  0  0  0  0
 26 28  2  0  0  0  0
 27 26  1  0  0  0  0
 28 19  1  0  0  0  0
 29  9  1  0  0  0  0
 29 31  1  0  0  0  0
 30 28  1  0  0  0  0
 30 31  1  0  0  0  0
  1 31  1  0  0  0  0
 31 32  1  0  0  0  0
 33 36  1  0  0  0  0
 36 37  2  0  0  0  0
 34 37  1  0  0  0  0
 34 38  2  0  0  0  0
 35 38  1  0  0  0  0
 33 35  2  0  0  0  0
 37 40  1  0  0  0  0
 38 41  1  0  0  0  0
 34 42  1  0  0  0  0
 36 39  1  0  0  0  0
 43 44  1  0  0  0  0
 43 45  1  0  0  0  0
 43 46  1  0  0  0  0
 35 43  1  0  0  0  0
 32 33  1  0  0  0  0
 47 48  3  0  0  0  0
  1 47  1  0  0  0  0
M  END
> <PM6_ENERGY>
-384.102

> <UID>
SBAONALNGHKKJG-MMMXYSLHNA-N

> <FITNESS>
1.1391

> <GCODE>
23066

> <GraphENC>
23066 72_1_0,80_65_1,110_49_1,87_66_1,100422_52_1,578925_37_1, 72_0_80_0_SINGLE_Xlig:0_Xlig:1,72_2_110_1_SINGLE_scaff:0_MPhosphite:1,72_1_87_0_SINGLE_Xlig:0_Xlig:1,110_0_100422_0_SINGLE_LPhosphiteSubO:0_LPhosphiteSubO:1,100422_1_578925_0_SINGLE_OPhosphiteSub:1_SubArM:1, 

> <GraphJson>
{
  "graphId": 23066,
  "gVertices": [
    {
      "lstAPs": [
        {
          "id": 635323,
          "atomPositionNumber": 0,
          "atomPositionNumberInMol": 0,
          "apClass": {
            "rule": "Xlig",
            "subClass": 0,
            "bndTyp": "SINGLE"
          },
          "dirVec": {
            "x": -2.3339,
            "y": -0.0087,
            "z": 0.8172
          }
        },
        {
          "id": 635324,
          "atomPositionNumber": 0,
          "atomPositionNumberInMol": 0,
          "apClass": {
            "rule": "Xlig",
            "subClass": 0,
            "bndTyp": "SINGLE"
          },
          "dirVec": {
            "x": 2.336,
            "y": -5.0E-4,
            "z": 0.829
          }
        },
        {
          "id": 635325,
          "atomPositionNumber": 0,
          "atomPositionNumberInMol": 0,
          "apClass": {
            "rule": "scaff",
            "subClass": 0,
            "bndTyp": "SINGLE"
          },
          "dirVec": {
            "x": -0.0095,
            "y": 0.0046,
            "z": -1.7113
          }
        }
      ],
      "lstSymAPs": [
        {
          "symIds": [
            0,
            1
          ]
        }
      ],
      "mol": {
        "atoms": [
          {
            "elSymbol": "Pt",
            "p3d": {
              "x": -0.0098,
              "y": 0.0049,
              "z": 0.6289
            }
          },
          {
            "elSymbol": "C",
            "p3d": {
              "x": -6.0E-4,
              "y": 0.0016,
              "z": 2.5609
            }
          },
          {
            "elSymbol": "O",
            "p3d": {
              "x": 0.0025,
              "y": -0.0041,
              "z": 3.6974
            }
          },
          {
            "elSymbol": "Du",
            "p3d": {
              "x": -0.007,
              "y": 1.0013,
              "z": 0.6372
            }
          },
          {
            "elSymbol": "Du",
            "p3d": {
              "x": -0.0014,
              "y": 0.9902,
              "z": 2.5698
            }
          }
        ],
        "bonds": [
          {
            "atomIds": [
              1,
              2
            ],
            "bo": "TRIPLE"
          },
          {
            "atomIds": [
              0,
              1
            ],
            "bo": "SINGLE"
          },
          {
            "atomIds": [
              3,
              0
            ],
            "bo": "SINGLE"
          },
          {
            "atomIds": [
              4,
              1
            ],
            "bo": "SINGLE"
          }
        ]
      },
      "vertexId": 72,
      "buildingBlockId": 0,
      "buildingBlockType": "SCAFFOLD",
      "isRCV": false,
      "properties": {
        "ATTACHMENT_POINTS": "1#Xlig:0:SINGLE:-2.3339%-0.0087%0.8172,Xlig:0:SINGLE:2.3360%-0.0005%0.8290,scaff:0:SINGLE:-0.0095%0.0046%-1.7113 "
      },
      "uniquefyingPropertyKeys": [],
      "allowedMutationTypes": [
        "DELETE",
        "EXTEND",
        "CHANGEBRANCH",
        "CHANGELINK",
        "ADDLINK",
        "DELETELINK",
        "DELETECHAIN"
      ],
      "vertexType": "MolecularFragment"
    },
    {
      "lstAPs": [
        {
          "id": 635326,
          "atomPositionNumber": 0,
          "atomPositionNumberInMol": 5,
          "apClass": {
            "rule": "Xlig",
            "subClass": 1,
            "bndTyp": "SINGLE"
          },
          "dirVec": {
            "x": -0.1753,
            "y": 0.0948,
            "z": -0.4464
          }
        }
      ],
      "lstSymAPs": [],
      "mol": {
        "atoms": [
          {
            "elSymbol": "O",
            "p3d": {
              "x": -0.3534,
              "y": 2.1044,
              "z": -0.7339
            }
          },
          {
            "elSymbol": "C",
            "p3d": {
              "x": -0.5345,
              "y": 2.7646,
              "z": 0.4801
            }
          },
          {
            "elSymbol": "H",
            "p3d": {
              "x": -0.3728,
              "y": 3.8337,
              "z": 0.2724
            }
          },
          {
            "elSymbol": "H",
            "p3d": {
              "x": 0.1816,
              "y": 2.4161,
              "z": 1.2384
            }
          },
          {
            "elSymbol": "H",
            "p3d": {
              "x": -1.553,
              "y": 2.6149,
              "z": 0.8489
            }
          }
        ],
        "bonds": [
          {
            "atomIds": [
              1,
              2
            ],
            "bo": "SINGLE"
          },
          {
            "atomIds": [
              1,
              3
            ],
            "bo": "SINGLE"
          },
          {
            "atomIds": [
              1,
              4
            ],
            "bo": "SINGLE"
          },
          {
            "atomIds": [
              0,
              1
            ],
            "bo": "SINGLE"
          }
        ]
      },
      "vertexId": 80,
      "buildingBlockId": 64,
      "buildingBlockType": "FRAGMENT",
      "isRCV": false,
      "properties": {
        "ATTACHMENT_POINTS": "1#Xlig:1:SINGLE:-0.1753%0.0948%-0.4464 "
      },
      "uniquefyingPropertyKeys": [],
      "allowedMutationTypes": [
        "DELETE",
        "EXTEND",
        "CHANGEBRANCH",
        "CHANGELINK",
        "ADDLINK",
        "DELETELINK",
        "DELETECHAIN"
      ],
      "vertexType": "MolecularFragment"
    },
    {
      "lstAPs": [
        {
          "id": 635327,
          "atomPositionNumber": 22,
          "atomPositionNumberInMol": 32,
          "apClass": {
            "rule": "LPhosphiteSubO",
            "subClass": 0,
            "bndTyp": "SINGLE"
          },
          "dirVec": {
            "x": 6.6821,
            "y": 5.3677,
            "z": 17.7965
          }
        },
        {
          "id": 635328,
          "atomPositionNumber": 22,
          "atomPositionNumberInMol": 32,
          "apClass": {
            "rule": "MPhosphite",
            "subClass": 1,
            "bndTyp": "SINGLE"
          },
          "dirVec": {
            "x": 5.2115,
            "y": 8.219,
            "z": 18.2686
          }
        }
      ],
      "lstSymAPs": [],
      "mol": {
        "atoms": [
          {
            "elSymbol": "C",
            "p3d": {
              "x": 8.868,
              "y": 7.7904,
              "z": 19.5309
            }
          },
          {
            "elSymbol": "C",
            "p3d": {
              "x": 8.6758,
              "y": 8.541,
              "z": 20.6816
            }
          },
          {
            "elSymbol": "H",
            "p3d": {
              "x": 7.7959,
              "y": 8.3781,
              "z": 21.2982
            }
          },
          {
            "elSymbol": "C",
            "p3d": {
              "x": 9.6226,
              "y": 9.508,
              "z": 21.0124
            }
          },
          {
            "elSymbol": "H",
            "p3d": {
              "x": 9.4801,
              "y": 10.1014,
              "z": 21.9119
            }
          },
          {
            "elSymbol": "C",
            "p3d": {
              "x": 10.6714,
              "y": 9.7257,
              "z": 20.2615
            }
          },
          {
            "elSymbol": "H",
            "p3d": {
              "x": 11.369,
              "y": 10.5105,
              "z": 20.5337
            }
          },
          {
            "elSymbol": "C",
            "p3d": {
              "x": 10.8922,
              "y": 8.9513,
              "z": 19.0933
            }
          },
          {
            "elSymbol": "H",
            "p3d": {
              "x": 11.7788,
              "y": 9.1364,
              "z": 18.5012
            }
          },
          {
            "elSymbol": "C",
            "p3d": {
              "x": 9.9896,
              "y": 7.9623,
              "z": 18.7237
            }
          },
          {
            "elSymbol": "C",
            "p3d": {
              "x": 10.1857,
              "y": 7.1333,
              "z": 17.5283
            }
          },
          {
            "elSymbol": "C",
            "p3d": {
              "x": 11.42,
              "y": 6.6249,
              "z": 17.1632
            }
          },
          {
            "elSymbol": "H",
            "p3d": {
              "x": 12.2741,
              "y": 6.8237,
              "z": 17.826
            }
          },
          {
            "elSymbol": "C",
            "p3d": {
              "x": 11.6652,
              "y": 5.8687,
              "z": 16.0429
            }
          },
          {
            "elSymbol": "H",
            "p3d": {
              "x": 12.6727,
              "y": 5.5494,
              "z": 15.7739
            }
          },
          {
            "elSymbol": "C",
            "p3d": {
              "x": 10.5758,
              "y": 5.5431,
              "z": 15.2313
            }
          },
          {
            "elSymbol": "H",
            "p3d": {
              "x": 10.7121,
              "y": 4.8845,
              "z": 14.3736
            }
          },
          {
            "elSymbol": "C",
            "p3d": {
              "x": 9.3214,
              "y": 6.0404,
              "z": 15.5538
            }
          },
          {
            "elSymbol": "H",
            "p3d": {
              "x": 8.4837,
              "y": 5.8344,
              "z": 14.9027
            }
          },
          {
            "elSymbol": "C",
            "p3d": {
              "x": 9.1581,
              "y": 6.8298,
              "z": 16.6773
            }
          },
          {
            "elSymbol": "O",
            "p3d": {
              "x": 7.9608,
              "y": 6.7634,
              "z": 19.2501
            }
          },
          {
            "elSymbol": "O",
            "p3d": {
              "x": 7.8839,
              "y": 7.3746,
              "z": 16.893
            }
          },
          {
            "elSymbol": "P",
            "p3d": {
              "x": 6.9287,
              "y": 6.8843,
              "z": 18.0447
            }
          }
        ],
        "bonds": [
          {
            "atomIds": [
              0,
              1
            ],
            "bo": "DOUBLE"
          },
          {
            "atomIds": [
              1,
              2
            ],
            "bo": "SINGLE"
          },
          {
            "atomIds": [
              3,
              1
            ],
            "bo": "SINGLE"
          },
          {
            "atomIds": [
              4,
              3
            ],
            "bo": "SINGLE"
          },
          {
            "atomIds": [
              5,
              3
            ],
            "bo": "DOUBLE"
          },
          {
            "atomIds": [
              6,
              5
            ],
            "bo": "SINGLE"
          },
          {
            "atomIds": [
              7,
              5
            ],
            "bo": "SINGLE"
          },
          {
            "atomIds": [
              7,
              9
            ],
            "bo": "DOUBLE"
          },
          {
            "atomIds": [
              8,
              7
            ],
            "bo": "SINGLE"
          },
          {
            "atomIds": [
              9,
              0
            ],
            "bo": "SINGLE"
          },
          {
            "atomIds": [
              10,
              9
            ],
            "bo": "SINGLE"
          },
          {
            "atomIds": [
              11,
              10
            ],
            "bo": "DOUBLE"
          },
          {
            "atomIds": [
              12,
              11
            ],
            "bo": "SINGLE"
          },
          {
            "atomIds": [
              13,
              11
            ],
            "bo": "SINGLE"
          },
          {
            "atomIds": [
              14,
              13
            ],
            "bo": "SINGLE"
          },
          {
            "atomIds": [
              15,
              13
            ],
            "bo": "DOUBLE"
          },
          {
            "atomIds": [
              16,
              15
            ],
            "bo": "SINGLE"
          },
          {
            "atomIds": [
              17,
              15
            ],
            "bo": "SINGLE"
          },
          {
            "atomIds": [
              17,
              19
            ],
            "bo": "DOUBLE"
          },
          {
            "atomIds": [
              18,
              17
            ],
            "bo": "SINGLE"
          },
          {
            "atomIds": [
              19,
              10
            ],
            "bo": "SINGLE"
          },
          {
            "atomIds": [
              20,
              0
            ],
            "bo": "SINGLE"
          },
          {
            "atomIds": [
              20,
              22
            ],
            "bo": "SINGLE"
          },
          {
            "atomIds": [
              21,
              19
            ],
            "bo": "SINGLE"
          },
          {
            "atomIds": [
              21,
              22
            ],
            "bo": "SINGLE"
          }
        ]
      },
      "vertexId": 110,
      "buildingBlockId": 48,
      "buildingBlockType": "FRAGMENT",
      "isRCV": false,
      "properties": {
        "ATTACHMENT_POINTS": "23#LPhosphiteSubO:0:SINGLE:6.6821%5.3677%17.7965,MPhosphite:1:SINGLE:5.2115%8.2190%18.2686 "
      },
      "uniquefyingPropertyKeys": [],
      "allowedMutationTypes": [
        "DELETE",
        "EXTEND",
        "CHANGEBRANCH",
        "CHANGELINK",
        "ADDLINK",
        "DELETELINK",
        "DELETECHAIN"
      ],
      "vertexType": "MolecularFragment"
    },
    {
      "lstAPs": [
        {
          "id": 635329,
          "atomPositionNumber": 0,
          "atomPositionNumberInMol": 48,
          "apClass": {
            "rule": "Xlig",
            "subClass": 1,
            "bndTyp": "SINGLE"
          },
          "dirVec": {
            "x": 0.0192,
            "y": -0.0048,
            "z": -0.5645
          }
        }
      ],
      "lstSymAPs": [],
      "mol": {
        "atoms": [
          {
            "elSymbol": "C",
            "p3d": {
              "x": -1.967,
              "y": -0.0075,
              "z": -0.4937
            }
          },
          {
            "elSymbol": "N",
            "p3d": {
              "x": -3.1263,
              "y": -0.0054,
              "z": -0.4354
            }
          },
          {
            "elSymbol": "Du",
            "p3d": {
              "x": -1.9744,
              "y": 0.9926,
              "z": -0.5036
            }
          }
        ],
        "bonds": [
          {
            "atomIds": [
              0,
              1
            ],
            "bo": "TRIPLE"
          },
          {
            "atomIds": [
              2,
              0
            ],
            "bo": "SINGLE"
          }
        ]
      },
      "vertexId": 87,
      "buildingBlockId": 65,
      "buildingBlockType": "FRAGMENT",
      "isRCV": false,
      "properties": {
        "ATTACHMENT_POINTS": "1#Xlig:1:SINGLE:0.0192%-0.0048%-0.5645 "
      },
      "uniquefyingPropertyKeys": [],
      "allowedMutationTypes": [
        "DELETE",
        "EXTEND",
        "CHANGEBRANCH",
        "CHANGELINK",
        "ADDLINK",
        "DELETELINK",
        "DELETECHAIN"
      ],
      "vertexType": "MolecularFragment"
    },
    {
      "lstAPs": [
        {
          "id": 635330,
          "atomPositionNumber": 0,
          "atomPositionNumberInMol": 33,
          "apClass": {
            "rule": "LPhosphiteSubO",
            "subClass": 1,
            "bndTyp": "SINGLE"
          },
          "dirVec": {
            "x": 0.7035,
            "y": 2.9119,
            "z": 2.8175
          }
        },
        {
          "id": 635331,
          "atomPositionNumber": 0,
          "atomPositionNumberInMol": 33,
          "apClass": {
            "rule": "OPhosphiteSub",
            "subClass": 1,
            "bndTyp": "SINGLE"
          },
          "dirVec": {
            "x": 0.0564,
            "y": 5.2897,
            "z": 1.9394
          }
        }
      ],
      "lstSymAPs": [],
      "mol": {
        "atoms": [
          {
            "elSymbol": "O",
            "p3d": {
              "x": -0.1418,
              "y": 4.2412,
              "z": 2.9314
            }
          }
        ],
        "bonds": []
      },
      "vertexId": 100422,
      "buildingBlockId": 51,
      "buildingBlockType": "FRAGMENT",
      "isRCV": false,
      "properties": {
        "ATTACHMENT_POINTS": "1#LPhosphiteSubO:1:SINGLE:0.7035%2.9119%2.8175,OPhosphiteSub:1:SINGLE:0.0564%5.2897%1.9394 "
      },
      "uniquefyingPropertyKeys": [],
      "allowedMutationTypes": [
        "DELETE",
        "EXTEND",
        "CHANGEBRANCH",
        "CHANGELINK",
        "ADDLINK",
        "DELETELINK",
        "DELETECHAIN"
      ],
      "vertexType": "MolecularFragment"
    },
    {
      "lstAPs": [
        {
          "id": 635362,
          "atomPositionNumber": 0,
          "atomPositionNumberInMol": 34,
          "apClass": {
            "rule": "SubArM",
            "subClass": 1,
            "bndTyp": "SINGLE"
          },
          "dirVec": {
            "x": 0.3016,
            "y": 0.3831,
            "z": -0.6449
          }
        }
      ],
      "lstSymAPs": [],
      "mol": {
        "atoms": [
          {
            "elSymbol": "C",
            "p3d": {
              "x": 1.7096,
              "y": 0.5525,
              "z": -1.2136
            }
          },
          {
            "elSymbol": "C",
            "p3d": {
              "x": 4.2502,
              "y": 0.8767,
              "z": -2.2636
            }
          },
          {
            "elSymbol": "C",
            "p3d": {
              "x": 2.3368,
              "y": 1.7899,
              "z": -1.1199
            }
          },
          {
            "elSymbol": "C",
            "p3d": {
              "x": 2.344,
              "y": -0.5151,
              "z": -1.819
            }
          },
          {
            "elSymbol": "C",
            "p3d": {
              "x": 3.6162,
              "y": -0.3625,
              "z": -2.3439
            }
          },
          {
            "elSymbol": "C",
            "p3d": {
              "x": 3.6039,
              "y": 1.9353,
              "z": -1.6584
            }
          },
          {
            "elSymbol": "H",
            "p3d": {
              "x": 1.8411,
              "y": -1.493,
              "z": -1.8837
            }
          },
          {
            "elSymbol": "H",
            "p3d": {
              "x": 4.113,
              "y": -1.2006,
              "z": -2.8069
            }
          },
          {
            "elSymbol": "H",
            "p3d": {
              "x": 4.1107,
              "y": 2.9115,
              "z": -1.5913
            }
          },
          {
            "elSymbol": "H",
            "p3d": {
              "x": 5.2516,
              "y": 0.992,
              "z": -2.67
            }
          },
          {
            "elSymbol": "C",
            "p3d": {
              "x": 1.6301,
              "y": 2.9729,
              "z": -0.4606
            }
          },
          {
            "elSymbol": "H",
            "p3d": {
              "x": 2.3743,
              "y": 3.6775,
              "z": -0.0646
            }
          },
          {
            "elSymbol": "H",
            "p3d": {
              "x": 1.0016,
              "y": 2.6144,
              "z": 0.3512
            }
          },
          {
            "elSymbol": "H",
            "p3d": {
              "x": 1.0097,
              "y": 3.4845,
              "z": -1.1971
            }
          }
        ],
        "bonds": [
          {
            "atomIds": [
              0,
              3
            ],
            "bo": "SINGLE"
          },
          {
            "atomIds": [
              3,
              4
            ],
            "bo": "DOUBLE"
          },
          {
            "atomIds": [
              1,
              4
            ],
            "bo": "SINGLE"
          },
          {
            "atomIds": [
              1,
              5
            ],
            "bo": "DOUBLE"
          },
          {
            "atomIds": [
              2,
              5
            ],
            "bo": "SINGLE"
          },
          {
            "atomIds": [
              0,
              2
            ],
            "bo": "DOUBLE"
          },
          {
            "atomIds": [
              4,
              7
            ],
            "bo": "SINGLE"
          },
          {
            "atomIds": [
              5,
              8
            ],
            "bo": "SINGLE"
          },
          {
            "atomIds": [
              1,
              9
            ],
            "bo": "SINGLE"
          },
          {
            "atomIds": [
              3,
              6
            ],
            "bo": "SINGLE"
          },
          {
            "atomIds": [
              10,
              11
            ],
            "bo": "SINGLE"
          },
          {
            "atomIds": [
              10,
              12
            ],
            "bo": "SINGLE"
          },
          {
            "atomIds": [
              10,
              13
            ],
            "bo": "SINGLE"
          },
          {
            "atomIds": [
              2,
              10
            ],
            "bo": "SINGLE"
          }
        ]
      },
      "vertexId": 578925,
      "buildingBlockId": 36,
      "buildingBlockType": "FRAGMENT",
      "isRCV": false,
      "properties": {
        "ATTACHMENT_POINTS": "1#SubArM:1:SINGLE:0.3016%0.3831%-0.6449 "
      },
      "uniquefyingPropertyKeys": [],
      "allowedMutationTypes": [
        "DELETE",
        "EXTEND",
        "CHANGEBRANCH",
        "CHANGELINK",
        "ADDLINK",
        "DELETELINK",
        "DELETECHAIN"
      ],
      "vertexType": "MolecularFragment"
    }
  ],
  "gEdges": [
    {
      "srcAPID": 635323,
      "trgAPID": 635326,
      "bondType": "SINGLE"
    },
    {
      "srcAPID": 635325,
      "trgAPID": 635328,
      "bondType": "SINGLE"
    },
    {
      "srcAPID": 635324,
      "trgAPID": 635329,
      "bondType": "SINGLE"
    },
    {
      "srcAPID": 635327,
      "trgAPID": 635330,
      "bondType": "SINGLE"
    },
    {
      "srcAPID": 635331,
      "trgAPID": 635362,
      "bondType": "SINGLE"
    }
  ],
  "gRings": [],
  "symVertices": []
}

> <SMILES>
[Pt](C#O)(OC([H])([H])[H])([P]1(OC2=C([H])C([H])=C([H])C(=C2C3=C([H])C([H])=C([H])C(=C3O1)[H])[H])OC=4C(=C(C(=C(C4C([H])([H])[H])[H])[H])[H])[H])C#N

$$$$
