M00000522
  CDK     04222208503D

 53 55  0  0  0  0  0  0  0  0999 V2000
   -2.5074    0.0183    0.5529 Pt  0  0  0  0  0  0  0  0  0  0  0  0
   -4.4622    0.0457    0.7184 C   0  0  0  0  0  0  0  0  0  0  0  0
   -5.5971    0.0450    0.8289 O   0  0  0  0  0  0  0  0  0  0  0  0
   -2.6021    2.0611    1.6873 S   0  0  0  0  0  0  0  0  0  0  0  0
   -2.3260    3.1439    0.2569 C   0  0  0  0  0  0  0  0  0  0  0  0
   -2.9497    4.0398    0.3625 H   0  0  0  0  0  0  0  0  0  0  0  0
   -2.5962    2.6414   -0.6769 H   0  0  0  0  0  0  0  0  0  0  0  0
   -1.2767    3.4580    0.2142 H   0  0  0  0  0  0  0  0  0  0  0  0
   -0.2330   -0.0626    0.4202 P   0  0  0  0  0  0  0  0  0  0  0  0
    1.2785   -1.4393   -1.6034 C   0  0  0  0  0  0  0  0  0  0  0  0
    0.8101   -2.2969   -2.1475 H   0  0  0  0  0  0  0  0  0  0  0  0
    1.8120   -1.8755   -0.7266 H   0  0  0  0  0  0  0  0  0  0  0  0
    2.2655   -0.7163   -2.5401 C   0  0  0  0  0  0  0  0  0  0  0  0
    2.8438    0.0646   -2.0190 H   0  0  0  0  0  0  0  0  0  0  0  0
    2.9494   -1.4179   -3.0513 H   0  0  0  0  0  0  0  0  0  0  0  0
    0.5383    0.8123   -3.2553 C   0  0  0  0  0  0  0  0  0  0  0  0
    0.1129    1.1191   -4.2268 H   0  0  0  0  0  0  0  0  0  0  0  0
    1.0157    1.6770   -2.7520 H   0  0  0  0  0  0  0  0  0  0  0  0
   -0.4967    0.1228   -2.3450 C   0  0  0  0  0  0  0  0  0  0  0  0
   -1.2753    0.8456   -2.0114 H   0  0  0  0  0  0  0  0  0  0  0  0
   -1.0312   -0.6794   -2.9234 H   0  0  0  0  0  0  0  0  0  0  0  0
    0.2148   -0.4949   -1.2028 N   0  0  0  0  0  0  0  0  0  0  0  0
    1.5657   -0.1185   -3.6523 O   0  0  0  0  0  0  0  0  0  0  0  0
    1.7666   -1.2892    2.0077 C   0  0  0  0  0  0  0  0  0  0  0  0
    1.7871   -1.1699    3.1184 H   0  0  0  0  0  0  0  0  0  0  0  0
    2.3939   -0.4762    1.5862 H   0  0  0  0  0  0  0  0  0  0  0  0
    2.3278   -2.6744    1.6264 C   0  0  0  0  0  0  0  0  0  0  0  0
    2.4034   -2.7887    0.5249 H   0  0  0  0  0  0  0  0  0  0  0  0
    3.3012   -2.8848    2.1033 H   0  0  0  0  0  0  0  0  0  0  0  0
    0.1176   -3.6519    1.7150 C   0  0  0  0  0  0  0  0  0  0  0  0
   -0.3418   -4.4956    2.2607 H   0  0  0  0  0  0  0  0  0  0  0  0
    0.0736   -3.8352    0.6276 H   0  0  0  0  0  0  0  0  0  0  0  0
   -0.4980   -2.2950    2.1021 C   0  0  0  0  0  0  0  0  0  0  0  0
   -1.5539   -2.2217    1.7496 H   0  0  0  0  0  0  0  0  0  0  0  0
   -0.5221   -2.1937    3.2143 H   0  0  0  0  0  0  0  0  0  0  0  0
    0.3592   -1.2170    1.5485 N   0  0  0  0  0  0  0  0  0  0  0  0
    1.4944   -3.7228    2.1537 O   0  0  0  0  0  0  0  0  0  0  0  0
    0.6800    1.4978    0.8433 C   0  0  0  0  0  0  0  0  0  0  0  0
    1.9700    3.8581    1.5629 C   0  0  0  0  0  0  0  0  0  0  0  0
    1.4375    2.1830   -0.1062 C   0  0  0  0  0  0  0  0  0  0  0  0
    0.5528    1.9790    2.1488 C   0  0  0  0  0  0  0  0  0  0  0  0
    1.2052    3.1667    2.5060 C   0  0  0  0  0  0  0  0  0  0  0  0
    2.0875    3.3669    0.2576 C   0  0  0  0  0  0  0  0  0  0  0  0
    1.5359    1.8261   -1.1395 H   0  0  0  0  0  0  0  0  0  0  0  0
   -0.0466    1.4622    2.9064 H   0  0  0  0  0  0  0  0  0  0  0  0
    1.1035    3.5552    3.5188 H   0  0  0  0  0  0  0  0  0  0  0  0
    2.6826    3.9090   -0.4751 H   0  0  0  0  0  0  0  0  0  0  0  0
    2.4734    4.7837    1.8428 H   0  0  0  0  0  0  0  0  0  0  0  0
   -3.0204   -2.0395   -0.4617 S   0  0  0  0  0  0  0  0  0  0  0  0
   -3.3944   -1.4822   -2.1459 C   0  0  0  0  0  0  0  0  0  0  0  0
   -2.4896   -1.5159   -2.7705 H   0  0  0  0  0  0  0  0  0  0  0  0
   -3.8003   -0.4670   -2.1527 H   0  0  0  0  0  0  0  0  0  0  0  0
   -4.1391   -2.1604   -2.5810 H   0  0  0  0  0  0  0  0  0  0  0  0
  2  3  3  0  0  0  0
  1  2  1  0  0  0  0
  5  6  1  0  0  0  0
  5  7  1  0  0  0  0
  5  8  1  0  0  0  0
  4  5  1  0  0  0  0
  1  4  1  0  0  0  0
  1  9  1  0  0  0  0
 10 11  1  0  0  0  0
 12 10  1  0  0  0  0
 13 10  1  0  0  0  0
 14 13  1  0  0  0  0
 15 13  1  0  0  0  0
 16 17  1  0  0  0  0
 18 16  1  0  0  0  0
 19 16  1  0  0  0  0
 20 19  1  0  0  0  0
 21 19  1  0  0  0  0
 22 10  1  0  0  0  0
 23 13  1  0  0  0  0
 16 23  1  0  0  0  0
 19 22  1  0  0  0  0
  9 22  1  0  0  0  0
 24 25  1  0  0  0  0
 26 24  1  0  0  0  0
 27 24  1  0  0  0  0
 28 27  1  0  0  0  0
 29 27  1  0  0  0  0
 30 31  1  0  0  0  0
 32 30  1  0  0  0  0
 33 30  1  0  0  0  0
 34 33  1  0  0  0  0
 35 33  1  0  0  0  0
 36 24  1  0  0  0  0
 37 27  1  0  0  0  0
 30 37  1  0  0  0  0
 33 36  1  0  0  0  0
  9 36  1  0  0  0  0
 38 41  1  0  0  0  0
 41 42  2  0  0  0  0
 39 42  1  0  0  0  0
 39 43  2  0  0  0  0
 40 43  1  0  0  0  0
 38 40  2  0  0  0  0
 42 46  1  0  0  0  0
 43 47  1  0  0  0  0
 39 48  1  0  0  0  0
 40 44  1  0  0  0  0
 41 45  1  0  0  0  0
  9 38  1  0  0  0  0
 50 51  1  0  0  0  0
 50 52  1  0  0  0  0
 50 53  1  0  0  0  0
 49 50  1  0  0  0  0
  1 49  1  0  0  0  0
M  END
> <PM6_ENERGY>
-369.923

> <UID>
PBANOWBOKUBWDS-KCGFWBERNA-L

> <FITNESS>
1.14027

> <GCODE>
1051

> <GraphENC>
1051 72_1_0,79_64_1,100_3_1,85_64_1,16994_9_1,17326_9_1,17005_36_1, 72_0_79_0_SINGLE_Xlig:0_Xlig:1,72_2_100_3_SINGLE_scaff:0_MBisAminoPhosphine:1,72_1_85_0_SINGLE_Xlig:0_Xlig:1,100_0_16994_0_SINGLE_LBisAminoPhosphineN:0_LAminoPhosphineCycloN:1,100_1_17326_0_SINGLE_LBisAminoPhosphineN:0_LAminoPhosphineCycloN:1,100_2_17005_0_SINGLE_LBisAminoPhosphineSubR:0_SubArS:1, SymmetricSet [symIds=[16994, 17326]] 

> <GraphJson>
{
  "graphId": 1051,
  "gVertices": [
    {
      "lstAPs": [
        {
          "id": 23999,
          "atomPositionNumber": 0,
          "atomPositionNumberInMol": 0,
          "apClass": {
            "rule": "Xlig",
            "subClass": 0,
            "bndTyp": "SINGLE"
          },
          "dirVec": {
            "x": -2.3339,
            "y": -0.0087,
            "z": 0.8172
          }
        },
        {
          "id": 24000,
          "atomPositionNumber": 0,
          "atomPositionNumberInMol": 0,
          "apClass": {
            "rule": "Xlig",
            "subClass": 0,
            "bndTyp": "SINGLE"
          },
          "dirVec": {
            "x": 2.336,
            "y": -5.0E-4,
            "z": 0.829
          }
        },
        {
          "id": 24001,
          "atomPositionNumber": 0,
          "atomPositionNumberInMol": 0,
          "apClass": {
            "rule": "scaff",
            "subClass": 0,
            "bndTyp": "SINGLE"
          },
          "dirVec": {
            "x": -0.0095,
            "y": 0.0046,
            "z": -1.7113
          }
        }
      ],
      "lstSymAPs": [
        {
          "symIds": [
            0,
            1
          ]
        }
      ],
      "mol": {
        "atoms": [
          {
            "elSymbol": "Pt",
            "p3d": {
              "x": -0.0098,
              "y": 0.0049,
              "z": 0.6289
            }
          },
          {
            "elSymbol": "C",
            "p3d": {
              "x": -6.0E-4,
              "y": 0.0016,
              "z": 2.5609
            }
          },
          {
            "elSymbol": "O",
            "p3d": {
              "x": 0.0025,
              "y": -0.0041,
              "z": 3.6974
            }
          },
          {
            "elSymbol": "Du",
            "p3d": {
              "x": -0.007,
              "y": 1.0013,
              "z": 0.6372
            }
          },
          {
            "elSymbol": "Du",
            "p3d": {
              "x": -0.0014,
              "y": 0.9902,
              "z": 2.5698
            }
          }
        ],
        "bonds": [
          {
            "atomIds": [
              1,
              2
            ],
            "bo": "TRIPLE"
          },
          {
            "atomIds": [
              0,
              1
            ],
            "bo": "SINGLE"
          },
          {
            "atomIds": [
              3,
              0
            ],
            "bo": "SINGLE"
          },
          {
            "atomIds": [
              4,
              1
            ],
            "bo": "SINGLE"
          }
        ]
      },
      "vertexId": 72,
      "buildingBlockId": 0,
      "buildingBlockType": "SCAFFOLD",
      "isRCV": false,
      "properties": {
        "ATTACHMENT_POINTS": "1#Xlig:0:SINGLE:-2.3339%-0.0087%0.8172,Xlig:0:SINGLE:2.3360%-0.0005%0.8290,scaff:0:SINGLE:-0.0095%0.0046%-1.7113 "
      },
      "uniquefyingPropertyKeys": [],
      "allowedMutationTypes": [
        "DELETE",
        "EXTEND",
        "CHANGEBRANCH",
        "CHANGELINK",
        "ADDLINK",
        "DELETELINK",
        "DELETECHAIN"
      ],
      "vertexType": "MolecularFragment"
    },
    {
      "lstAPs": [
        {
          "id": 24002,
          "atomPositionNumber": 0,
          "atomPositionNumberInMol": 5,
          "apClass": {
            "rule": "Xlig",
            "subClass": 1,
            "bndTyp": "SINGLE"
          },
          "dirVec": {
            "x": -0.102,
            "y": 0.0185,
            "z": -1.0265
          }
        }
      ],
      "lstSymAPs": [],
      "mol": {
        "atoms": [
          {
            "elSymbol": "S",
            "p3d": {
              "x": -0.3267,
              "y": 2.3403,
              "z": -1.0022
            }
          },
          {
            "elSymbol": "C",
            "p3d": {
              "x": -0.626,
              "y": 2.4866,
              "z": 0.7805
            }
          },
          {
            "elSymbol": "H",
            "p3d": {
              "x": 0.1766,
              "y": 3.089,
              "z": 1.2414
            }
          },
          {
            "elSymbol": "H",
            "p3d": {
              "x": -0.651,
              "y": 1.5065,
              "z": 1.2643
            }
          },
          {
            "elSymbol": "H",
            "p3d": {
              "x": -1.5658,
              "y": 2.981,
              "z": 0.9515
            }
          }
        ],
        "bonds": [
          {
            "atomIds": [
              1,
              2
            ],
            "bo": "SINGLE"
          },
          {
            "atomIds": [
              1,
              3
            ],
            "bo": "SINGLE"
          },
          {
            "atomIds": [
              1,
              4
            ],
            "bo": "SINGLE"
          },
          {
            "atomIds": [
              0,
              1
            ],
            "bo": "SINGLE"
          }
        ]
      },
      "vertexId": 79,
      "buildingBlockId": 63,
      "buildingBlockType": "FRAGMENT",
      "isRCV": false,
      "properties": {
        "ATTACHMENT_POINTS": "1#Xlig:1:SINGLE:-0.1020%0.0185%-1.0265 "
      },
      "uniquefyingPropertyKeys": [],
      "allowedMutationTypes": [
        "DELETE",
        "EXTEND",
        "CHANGEBRANCH",
        "CHANGELINK",
        "ADDLINK",
        "DELETELINK",
        "DELETECHAIN"
      ],
      "vertexType": "MolecularFragment"
    },
    {
      "lstAPs": [
        {
          "id": 24003,
          "atomPositionNumber": 0,
          "atomPositionNumberInMol": 10,
          "apClass": {
            "rule": "LBisAminoPhosphineN",
            "subClass": 0,
            "bndTyp": "SINGLE"
          },
          "dirVec": {
            "x": -1.9272,
            "y": -0.2351,
            "z": 5.6045
          }
        },
        {
          "id": 24004,
          "atomPositionNumber": 0,
          "atomPositionNumberInMol": 10,
          "apClass": {
            "rule": "LBisAminoPhosphineN",
            "subClass": 0,
            "bndTyp": "SINGLE"
          },
          "dirVec": {
            "x": -1.4136,
            "y": -2.2231,
            "z": 3.8983
          }
        },
        {
          "id": 24005,
          "atomPositionNumber": 0,
          "atomPositionNumberInMol": 10,
          "apClass": {
            "rule": "LBisAminoPhosphineSubR",
            "subClass": 0,
            "bndTyp": "SINGLE"
          },
          "dirVec": {
            "x": -3.1852,
            "y": -0.3594,
            "z": 3.1924
          }
        },
        {
          "id": 24006,
          "atomPositionNumber": 0,
          "atomPositionNumberInMol": 10,
          "apClass": {
            "rule": "MBisAminoPhosphine",
            "subClass": 1,
            "bndTyp": "SINGLE"
          },
          "dirVec": {
            "x": 0.1796,
            "y": 0.6567,
            "z": 3.3484
          }
        }
      ],
      "lstSymAPs": [
        {
          "symIds": [
            0,
            1
          ]
        }
      ],
      "mol": {
        "atoms": [
          {
            "elSymbol": "P",
            "p3d": {
              "x": -1.6038,
              "y": -0.5663,
              "z": 4.0324
            }
          }
        ],
        "bonds": []
      },
      "vertexId": 100,
      "buildingBlockId": 2,
      "buildingBlockType": "FRAGMENT",
      "isRCV": false,
      "properties": {
        "ATTACHMENT_POINTS": "1#LBisAminoPhosphineN:0:SINGLE:-1.9272%-0.2351%5.6045,LBisAminoPhosphineN:0:SINGLE:-1.4136%-2.2231%3.8983,LBisAminoPhosphineSubR:0:SINGLE:-3.1852%-0.3594%3.1924,MBisAminoPhosphine:1:SINGLE:0.1796%0.6567%3.3484 "
      },
      "uniquefyingPropertyKeys": [],
      "allowedMutationTypes": [
        "DELETE",
        "EXTEND",
        "CHANGEBRANCH",
        "CHANGELINK",
        "ADDLINK",
        "DELETELINK",
        "DELETECHAIN"
      ],
      "vertexType": "MolecularFragment"
    },
    {
      "lstAPs": [
        {
          "id": 24007,
          "atomPositionNumber": 0,
          "atomPositionNumberInMol": 50,
          "apClass": {
            "rule": "Xlig",
            "subClass": 1,
            "bndTyp": "SINGLE"
          },
          "dirVec": {
            "x": -0.102,
            "y": 0.0185,
            "z": -1.0265
          }
        }
      ],
      "lstSymAPs": [],
      "mol": {
        "atoms": [
          {
            "elSymbol": "S",
            "p3d": {
              "x": -0.3267,
              "y": 2.3403,
              "z": -1.0022
            }
          },
          {
            "elSymbol": "C",
            "p3d": {
              "x": -0.626,
              "y": 2.4866,
              "z": 0.7805
            }
          },
          {
            "elSymbol": "H",
            "p3d": {
              "x": 0.1766,
              "y": 3.089,
              "z": 1.2414
            }
          },
          {
            "elSymbol": "H",
            "p3d": {
              "x": -0.651,
              "y": 1.5065,
              "z": 1.2643
            }
          },
          {
            "elSymbol": "H",
            "p3d": {
              "x": -1.5658,
              "y": 2.981,
              "z": 0.9515
            }
          }
        ],
        "bonds": [
          {
            "atomIds": [
              1,
              2
            ],
            "bo": "SINGLE"
          },
          {
            "atomIds": [
              1,
              3
            ],
            "bo": "SINGLE"
          },
          {
            "atomIds": [
              1,
              4
            ],
            "bo": "SINGLE"
          },
          {
            "atomIds": [
              0,
              1
            ],
            "bo": "SINGLE"
          }
        ]
      },
      "vertexId": 85,
      "buildingBlockId": 63,
      "buildingBlockType": "FRAGMENT",
      "isRCV": false,
      "properties": {
        "ATTACHMENT_POINTS": "1#Xlig:1:SINGLE:-0.1020%0.0185%-1.0265 "
      },
      "uniquefyingPropertyKeys": [],
      "allowedMutationTypes": [
        "DELETE",
        "EXTEND",
        "CHANGEBRANCH",
        "CHANGELINK",
        "ADDLINK",
        "DELETELINK",
        "DELETECHAIN"
      ],
      "vertexType": "MolecularFragment"
    },
    {
      "lstAPs": [
        {
          "id": 24044,
          "atomPositionNumber": 12,
          "atomPositionNumberInMol": 23,
          "apClass": {
            "rule": "LAminoPhosphineCycloN",
            "subClass": 1,
            "bndTyp": "SINGLE"
          },
          "dirVec": {
            "x": 3.8318,
            "y": 4.4705,
            "z": 2.8673
          }
        }
      ],
      "lstSymAPs": [],
      "mol": {
        "atoms": [
          {
            "elSymbol": "C",
            "p3d": {
              "x": 1.6447,
              "y": 5.1042,
              "z": 4.3264
            }
          },
          {
            "elSymbol": "H",
            "p3d": {
              "x": 1.9147,
              "y": 6.0213,
              "z": 4.8479
            }
          },
          {
            "elSymbol": "H",
            "p3d": {
              "x": 1.9986,
              "y": 4.2552,
              "z": 4.9127
            }
          },
          {
            "elSymbol": "C",
            "p3d": {
              "x": 0.1515,
              "y": 5.0176,
              "z": 4.1739
            }
          },
          {
            "elSymbol": "H",
            "p3d": {
              "x": -0.1334,
              "y": 4.0848,
              "z": 3.6797
            }
          },
          {
            "elSymbol": "H",
            "p3d": {
              "x": -0.3255,
              "y": 5.0447,
              "z": 5.1478
            }
          },
          {
            "elSymbol": "C",
            "p3d": {
              "x": 0.2487,
              "y": 6.072,
              "z": 2.1008
            }
          },
          {
            "elSymbol": "H",
            "p3d": {
              "x": -0.1423,
              "y": 6.9098,
              "z": 1.5084
            }
          },
          {
            "elSymbol": "H",
            "p3d": {
              "x": -0.0446,
              "y": 5.157,
              "z": 1.5955
            }
          },
          {
            "elSymbol": "C",
            "p3d": {
              "x": 1.7465,
              "y": 6.1786,
              "z": 2.1683
            }
          },
          {
            "elSymbol": "H",
            "p3d": {
              "x": 2.17,
              "y": 6.1296,
              "z": 1.1666
            }
          },
          {
            "elSymbol": "H",
            "p3d": {
              "x": 2.031,
              "y": 7.1422,
              "z": 2.6107
            }
          },
          {
            "elSymbol": "N",
            "p3d": {
              "x": 2.2792,
              "y": 5.0823,
              "z": 2.9873
            }
          },
          {
            "elSymbol": "O",
            "p3d": {
              "x": -0.34,
              "y": 6.1108,
              "z": 3.3895
            }
          }
        ],
        "bonds": [
          {
            "atomIds": [
              0,
              1
            ],
            "bo": "SINGLE"
          },
          {
            "atomIds": [
              2,
              0
            ],
            "bo": "SINGLE"
          },
          {
            "atomIds": [
              3,
              0
            ],
            "bo": "SINGLE"
          },
          {
            "atomIds": [
              4,
              3
            ],
            "bo": "SINGLE"
          },
          {
            "atomIds": [
              5,
              3
            ],
            "bo": "SINGLE"
          },
          {
            "atomIds": [
              6,
              7
            ],
            "bo": "SINGLE"
          },
          {
            "atomIds": [
              8,
              6
            ],
            "bo": "SINGLE"
          },
          {
            "atomIds": [
              9,
              6
            ],
            "bo": "SINGLE"
          },
          {
            "atomIds": [
              10,
              9
            ],
            "bo": "SINGLE"
          },
          {
            "atomIds": [
              11,
              9
            ],
            "bo": "SINGLE"
          },
          {
            "atomIds": [
              12,
              0
            ],
            "bo": "SINGLE"
          },
          {
            "atomIds": [
              13,
              3
            ],
            "bo": "SINGLE"
          },
          {
            "atomIds": [
              6,
              13
            ],
            "bo": "SINGLE"
          },
          {
            "atomIds": [
              9,
              12
            ],
            "bo": "SINGLE"
          }
        ]
      },
      "vertexId": 16994,
      "buildingBlockId": 8,
      "buildingBlockType": "FRAGMENT",
      "isRCV": false,
      "properties": {
        "ATTACHMENT_POINTS": "13#LAminoPhosphineCycloN:1:SINGLE:3.8318%4.4705%2.8673 "
      },
      "uniquefyingPropertyKeys": [],
      "allowedMutationTypes": [
        "DELETE",
        "EXTEND",
        "CHANGEBRANCH",
        "CHANGELINK",
        "ADDLINK",
        "DELETELINK",
        "DELETECHAIN"
      ],
      "vertexType": "MolecularFragment"
    },
    {
      "lstAPs": [
        {
          "id": 24045,
          "atomPositionNumber": 12,
          "atomPositionNumberInMol": 37,
          "apClass": {
            "rule": "LAminoPhosphineCycloN",
            "subClass": 1,
            "bndTyp": "SINGLE"
          },
          "dirVec": {
            "x": 3.8318,
            "y": 4.4705,
            "z": 2.8673
          }
        }
      ],
      "lstSymAPs": [],
      "mol": {
        "atoms": [
          {
            "elSymbol": "C",
            "p3d": {
              "x": 1.6447,
              "y": 5.1042,
              "z": 4.3264
            }
          },
          {
            "elSymbol": "H",
            "p3d": {
              "x": 1.9147,
              "y": 6.0213,
              "z": 4.8479
            }
          },
          {
            "elSymbol": "H",
            "p3d": {
              "x": 1.9986,
              "y": 4.2552,
              "z": 4.9127
            }
          },
          {
            "elSymbol": "C",
            "p3d": {
              "x": 0.1515,
              "y": 5.0176,
              "z": 4.1739
            }
          },
          {
            "elSymbol": "H",
            "p3d": {
              "x": -0.1334,
              "y": 4.0848,
              "z": 3.6797
            }
          },
          {
            "elSymbol": "H",
            "p3d": {
              "x": -0.3255,
              "y": 5.0447,
              "z": 5.1478
            }
          },
          {
            "elSymbol": "C",
            "p3d": {
              "x": 0.2487,
              "y": 6.072,
              "z": 2.1008
            }
          },
          {
            "elSymbol": "H",
            "p3d": {
              "x": -0.1423,
              "y": 6.9098,
              "z": 1.5084
            }
          },
          {
            "elSymbol": "H",
            "p3d": {
              "x": -0.0446,
              "y": 5.157,
              "z": 1.5955
            }
          },
          {
            "elSymbol": "C",
            "p3d": {
              "x": 1.7465,
              "y": 6.1786,
              "z": 2.1683
            }
          },
          {
            "elSymbol": "H",
            "p3d": {
              "x": 2.17,
              "y": 6.1296,
              "z": 1.1666
            }
          },
          {
            "elSymbol": "H",
            "p3d": {
              "x": 2.031,
              "y": 7.1422,
              "z": 2.6107
            }
          },
          {
            "elSymbol": "N",
            "p3d": {
              "x": 2.2792,
              "y": 5.0823,
              "z": 2.9873
            }
          },
          {
            "elSymbol": "O",
            "p3d": {
              "x": -0.34,
              "y": 6.1108,
              "z": 3.3895
            }
          }
        ],
        "bonds": [
          {
            "atomIds": [
              0,
              1
            ],
            "bo": "SINGLE"
          },
          {
            "atomIds": [
              2,
              0
            ],
            "bo": "SINGLE"
          },
          {
            "atomIds": [
              3,
              0
            ],
            "bo": "SINGLE"
          },
          {
            "atomIds": [
              4,
              3
            ],
            "bo": "SINGLE"
          },
          {
            "atomIds": [
              5,
              3
            ],
            "bo": "SINGLE"
          },
          {
            "atomIds": [
              6,
              7
            ],
            "bo": "SINGLE"
          },
          {
            "atomIds": [
              8,
              6
            ],
            "bo": "SINGLE"
          },
          {
            "atomIds": [
              9,
              6
            ],
            "bo": "SINGLE"
          },
          {
            "atomIds": [
              10,
              9
            ],
            "bo": "SINGLE"
          },
          {
            "atomIds": [
              11,
              9
            ],
            "bo": "SINGLE"
          },
          {
            "atomIds": [
              12,
              0
            ],
            "bo": "SINGLE"
          },
          {
            "atomIds": [
              13,
              3
            ],
            "bo": "SINGLE"
          },
          {
            "atomIds": [
              6,
              13
            ],
            "bo": "SINGLE"
          },
          {
            "atomIds": [
              9,
              12
            ],
            "bo": "SINGLE"
          }
        ]
      },
      "vertexId": 17326,
      "buildingBlockId": 8,
      "buildingBlockType": "FRAGMENT",
      "isRCV": false,
      "properties": {
        "ATTACHMENT_POINTS": "13#LAminoPhosphineCycloN:1:SINGLE:3.8318%4.4705%2.8673 "
      },
      "uniquefyingPropertyKeys": [],
      "allowedMutationTypes": [
        "DELETE",
        "EXTEND",
        "CHANGEBRANCH",
        "CHANGELINK",
        "ADDLINK",
        "DELETELINK",
        "DELETECHAIN"
      ],
      "vertexType": "MolecularFragment"
    },
    {
      "lstAPs": [
        {
          "id": 24046,
          "atomPositionNumber": 0,
          "atomPositionNumberInMol": 39,
          "apClass": {
            "rule": "SubArS",
            "subClass": 1,
            "bndTyp": "SINGLE"
          },
          "dirVec": {
            "x": 0.2973,
            "y": 0.3873,
            "z": -0.6389
          }
        }
      ],
      "lstSymAPs": [],
      "mol": {
        "atoms": [
          {
            "elSymbol": "C",
            "p3d": {
              "x": 1.6995,
              "y": 0.5593,
              "z": -1.2083
            }
          },
          {
            "elSymbol": "C",
            "p3d": {
              "x": 4.2563,
              "y": 0.8754,
              "z": -2.2592
            }
          },
          {
            "elSymbol": "C",
            "p3d": {
              "x": 2.3334,
              "y": 1.79,
              "z": -1.1338
            }
          },
          {
            "elSymbol": "C",
            "p3d": {
              "x": 2.3422,
              "y": -0.5107,
              "z": -1.8125
            }
          },
          {
            "elSymbol": "C",
            "p3d": {
              "x": 3.612,
              "y": -0.3527,
              "z": -2.3321
            }
          },
          {
            "elSymbol": "C",
            "p3d": {
              "x": 3.6062,
              "y": 1.9513,
              "z": -1.6526
            }
          },
          {
            "elSymbol": "H",
            "p3d": {
              "x": 1.833,
              "y": 2.6461,
              "z": -0.6488
            }
          },
          {
            "elSymbol": "H",
            "p3d": {
              "x": 1.8361,
              "y": -1.4773,
              "z": -1.887
            }
          },
          {
            "elSymbol": "H",
            "p3d": {
              "x": 4.115,
              "y": -1.2043,
              "z": -2.8152
            }
          },
          {
            "elSymbol": "H",
            "p3d": {
              "x": 4.1097,
              "y": 2.9214,
              "z": -1.5842
            }
          },
          {
            "elSymbol": "H",
            "p3d": {
              "x": 5.2498,
              "y": 0.9926,
              "z": -2.665
            }
          }
        ],
        "bonds": [
          {
            "atomIds": [
              0,
              3
            ],
            "bo": "SINGLE"
          },
          {
            "atomIds": [
              3,
              4
            ],
            "bo": "DOUBLE"
          },
          {
            "atomIds": [
              1,
              4
            ],
            "bo": "SINGLE"
          },
          {
            "atomIds": [
              1,
              5
            ],
            "bo": "DOUBLE"
          },
          {
            "atomIds": [
              2,
              5
            ],
            "bo": "SINGLE"
          },
          {
            "atomIds": [
              0,
              2
            ],
            "bo": "DOUBLE"
          },
          {
            "atomIds": [
              4,
              8
            ],
            "bo": "SINGLE"
          },
          {
            "atomIds": [
              5,
              9
            ],
            "bo": "SINGLE"
          },
          {
            "atomIds": [
              1,
              10
            ],
            "bo": "SINGLE"
          },
          {
            "atomIds": [
              2,
              6
            ],
            "bo": "SINGLE"
          },
          {
            "atomIds": [
              3,
              7
            ],
            "bo": "SINGLE"
          }
        ]
      },
      "vertexId": 17005,
      "buildingBlockId": 35,
      "buildingBlockType": "FRAGMENT",
      "isRCV": false,
      "properties": {
        "ATTACHMENT_POINTS": "1#SubArS:1:SINGLE:0.2973%0.3873%-0.6389 "
      },
      "uniquefyingPropertyKeys": [],
      "allowedMutationTypes": [
        "DELETE",
        "EXTEND",
        "CHANGEBRANCH",
        "CHANGELINK",
        "ADDLINK",
        "DELETELINK",
        "DELETECHAIN"
      ],
      "vertexType": "MolecularFragment"
    }
  ],
  "gEdges": [
    {
      "srcAPID": 23999,
      "trgAPID": 24002,
      "bondType": "SINGLE"
    },
    {
      "srcAPID": 24001,
      "trgAPID": 24006,
      "bondType": "SINGLE"
    },
    {
      "srcAPID": 24000,
      "trgAPID": 24007,
      "bondType": "SINGLE"
    },
    {
      "srcAPID": 24003,
      "trgAPID": 24044,
      "bondType": "SINGLE"
    },
    {
      "srcAPID": 24004,
      "trgAPID": 24045,
      "bondType": "SINGLE"
    },
    {
      "srcAPID": 24005,
      "trgAPID": 24046,
      "bondType": "SINGLE"
    }
  ],
  "gRings": [],
  "symVertices": [
    {
      "symIds": [
        16994,
        17326
      ]
    }
  ]
}

> <SMILES>
[Pt](C#O)(SC([H])([H])[H])([P](N1C([H])([H])C([H])([H])OC([H])([H])C1([H])[H])(N2C([H])([H])C([H])([H])OC([H])([H])C2([H])[H])C=3C(=C(C(=C(C3[H])[H])[H])[H])[H])SC([H])([H])[H]

$$$$
