M00009158
  CDK     04222211593D

 60 65  0  0  0  0  0  0  0  0999 V2000
   -2.7404    1.3453   -0.0712 Pt  0  0  0  0  0  0  0  0  0  0  0  0
   -4.5863    1.9305    0.1896 C   0  0  0  0  0  0  0  0  0  0  0  0
   -5.6627    2.2766    0.3372 O   0  0  0  0  0  0  0  0  0  0  0  0
   -2.1742    2.7298    1.2547 C   0  0  0  0  0  0  0  0  0  0  0  0
   -1.8791    3.5743    1.9846 N   0  0  0  0  0  0  0  0  0  0  0  0
   -0.5867    0.7476   -0.4560 P   0  0  0  0  0  0  0  0  0  0  0  0
    0.4679    0.8948    0.9285 N   0  0  0  0  0  0  0  0  0  0  0  0
    0.0412    0.6647    2.2852 C   0  0  0  0  0  0  0  0  0  0  0  0
   -1.2111    0.2881    2.7759 C   0  0  0  0  0  0  0  0  0  0  0  0
   -2.0777    0.1205    2.1297 H   0  0  0  0  0  0  0  0  0  0  0  0
   -1.3359    0.1345    4.1608 C   0  0  0  0  0  0  0  0  0  0  0  0
   -2.3029   -0.1513    4.5769 H   0  0  0  0  0  0  0  0  0  0  0  0
   -0.2522    0.3427    5.0273 C   0  0  0  0  0  0  0  0  0  0  0  0
   -0.3939    0.2174    6.0997 H   0  0  0  0  0  0  0  0  0  0  0  0
    1.0020    0.7138    4.5345 C   0  0  0  0  0  0  0  0  0  0  0  0
    1.8414    0.8776    5.2076 H   0  0  0  0  0  0  0  0  0  0  0  0
    1.1580    0.8728    3.1594 C   0  0  0  0  0  0  0  0  0  0  0  0
    2.3009    1.2304    2.3324 C   0  0  0  0  0  0  0  0  0  0  0  0
    3.6222    1.5374    2.6420 C   0  0  0  0  0  0  0  0  0  0  0  0
    3.9575    1.5467    3.6779 H   0  0  0  0  0  0  0  0  0  0  0  0
    4.5065    1.8321    1.5987 C   0  0  0  0  0  0  0  0  0  0  0  0
    5.5435    2.0753    1.8250 H   0  0  0  0  0  0  0  0  0  0  0  0
    4.0757    1.8156    0.2658 C   0  0  0  0  0  0  0  0  0  0  0  0
    4.7879    2.0427   -0.5283 H   0  0  0  0  0  0  0  0  0  0  0  0
    2.7524    1.5128   -0.0759 C   0  0  0  0  0  0  0  0  0  0  0  0
    2.4577    1.5002   -1.1235 H   0  0  0  0  0  0  0  0  0  0  0  0
    1.8653    1.2285    0.9623 C   0  0  0  0  0  0  0  0  0  0  0  0
   -0.3750   -0.9121   -0.9591 N   0  0  0  0  0  0  0  0  0  0  0  0
   -1.1892   -1.9980   -0.4754 C   0  0  0  0  0  0  0  0  0  0  0  0
   -2.2461   -1.9838    0.4377 C   0  0  0  0  0  0  0  0  0  0  0  0
   -2.6058   -1.0691    0.9179 H   0  0  0  0  0  0  0  0  0  0  0  0
   -2.8604   -3.2075    0.7246 C   0  0  0  0  0  0  0  0  0  0  0  0
   -3.6940   -3.2295    1.4278 H   0  0  0  0  0  0  0  0  0  0  0  0
   -2.4358   -4.4044    0.1281 C   0  0  0  0  0  0  0  0  0  0  0  0
   -2.9451   -5.3346    0.3755 H   0  0  0  0  0  0  0  0  0  0  0  0
   -1.3753   -4.4180   -0.7821 C   0  0  0  0  0  0  0  0  0  0  0  0
   -1.0489   -5.3463   -1.2470 H   0  0  0  0  0  0  0  0  0  0  0  0
   -0.7422   -3.2150   -1.0865 C   0  0  0  0  0  0  0  0  0  0  0  0
    0.3725   -2.8822   -1.9608 C   0  0  0  0  0  0  0  0  0  0  0  0
    1.1770   -3.6581   -2.7894 C   0  0  0  0  0  0  0  0  0  0  0  0
    1.0107   -4.7310   -2.8715 H   0  0  0  0  0  0  0  0  0  0  0  0
    2.1999   -3.0332   -3.5111 C   0  0  0  0  0  0  0  0  0  0  0  0
    2.8373   -3.6267   -4.1646 H   0  0  0  0  0  0  0  0  0  0  0  0
    2.4160   -1.6535   -3.4019 C   0  0  0  0  0  0  0  0  0  0  0  0
    3.2245   -1.1930   -3.9709 H   0  0  0  0  0  0  0  0  0  0  0  0
    1.6213   -0.8474   -2.5783 C   0  0  0  0  0  0  0  0  0  0  0  0
    1.8252    0.2202   -2.5133 H   0  0  0  0  0  0  0  0  0  0  0  0
    0.5943   -1.4649   -1.8646 C   0  0  0  0  0  0  0  0  0  0  0  0
   -0.0795    3.3198   -1.2832 C   0  0  0  0  0  0  0  0  0  0  0  0
    0.0057    1.9018   -1.8277 C   0  0  0  0  0  0  0  0  0  0  0  0
   -0.9208    1.6735   -3.0132 C   0  0  0  0  0  0  0  0  0  0  0  0
   -0.8837    0.6486   -3.4176 H   0  0  0  0  0  0  0  0  0  0  0  0
   -0.6407    2.3333   -3.8499 H   0  0  0  0  0  0  0  0  0  0  0  0
   -1.9795    1.9051   -2.7989 H   0  0  0  0  0  0  0  0  0  0  0  0
   -1.1021    3.6254   -1.0007 H   0  0  0  0  0  0  0  0  0  0  0  0
    0.5697    3.5028   -0.4113 H   0  0  0  0  0  0  0  0  0  0  0  0
    0.2406    4.0434   -2.0498 H   0  0  0  0  0  0  0  0  0  0  0  0
    1.0693    1.6634   -2.1163 H   0  0  0  0  0  0  0  0  0  0  0  0
   -3.4027    0.0755   -1.4658 C   0  0  0  0  0  0  0  0  0  0  0  0
   -3.8144   -0.6065   -2.3014 N   0  0  0  0  0  0  0  0  0  0  0  0
  2  3  3  0  0  0  0
  1  2  1  0  0  0  0
  4  5  3  0  0  0  0
  1  4  1  0  0  0  0
  1  6  1  0  0  0  0
  8  7  1  0  0  0  0
  9  8  1  0  0  0  0
 10  9  1  0  0  0  0
 11  9  2  0  0  0  0
 12 11  1  0  0  0  0
 13 11  1  0  0  0  0
 14 13  1  0  0  0  0
 15 13  2  0  0  0  0
 16 15  1  0  0  0  0
 17  8  2  0  0  0  0
 17 15  1  0  0  0  0
 18 17  1  0  0  0  0
 18 19  1  0  0  0  0
 18 27  2  0  0  0  0
 20 19  1  0  0  0  0
 21 19  2  0  0  0  0
 22 21  1  0  0  0  0
 23 21  1  0  0  0  0
 24 23  1  0  0  0  0
 25 23  2  0  0  0  0
 25 27  1  0  0  0  0
 26 25  1  0  0  0  0
 27  7  1  0  0  0  0
  6  7  1  0  0  0  0
 29 28  1  0  0  0  0
 30 29  1  0  0  0  0
 31 30  1  0  0  0  0
 32 30  2  0  0  0  0
 33 32  1  0  0  0  0
 34 32  1  0  0  0  0
 35 34  1  0  0  0  0
 36 34  2  0  0  0  0
 37 36  1  0  0  0  0
 38 29  2  0  0  0  0
 38 36  1  0  0  0  0
 39 38  1  0  0  0  0
 39 40  1  0  0  0  0
 39 48  2  0  0  0  0
 41 40  1  0  0  0  0
 42 40  2  0  0  0  0
 43 42  1  0  0  0  0
 44 42  1  0  0  0  0
 45 44  1  0  0  0  0
 46 44  2  0  0  0  0
 46 48  1  0  0  0  0
 47 46  1  0  0  0  0
 48 28  1  0  0  0  0
  6 28  1  0  0  0  0
 49 50  1  0  0  0  0
 50 51  1  0  0  0  0
 51 52  1  0  0  0  0
 51 53  1  0  0  0  0
 51 54  1  0  0  0  0
 49 55  1  0  0  0  0
 49 56  1  0  0  0  0
 49 57  1  0  0  0  0
 50 58  1  0  0  0  0
  6 50  1  0  0  0  0
 59 60  3  0  0  0  0
  1 59  1  0  0  0  0
M  END
> <PM6_ENERGY>
512.975

> <UID>
YEFKUOSZGYAWPN-DPHMRCJENA-N

> <FITNESS>
1.14027

> <GCODE>
10103

> <GraphENC>
10103 72_1_0,81_66_1,100_3_1,87_66_1,206049_11_1,205497_11_1,205504_33_1, 72_0_81_0_SINGLE_Xlig:0_Xlig:1,72_2_100_3_SINGLE_scaff:0_MBisAminoPhosphine:1,72_1_87_0_SINGLE_Xlig:0_Xlig:1,100_1_206049_0_SINGLE_LBisAminoPhosphineN:0_LAminoPhosphineCycloN:1,100_0_205497_0_SINGLE_LBisAminoPhosphineN:0_LAminoPhosphineCycloN:1,100_2_205504_0_SINGLE_LBisAminoPhosphineSubR:0_SubRM:1, SymmetricSet [symIds=[206049, 205497]] 

> <GraphJson>
{
  "graphId": 10103,
  "gVertices": [
    {
      "lstAPs": [
        {
          "id": 269051,
          "atomPositionNumber": 0,
          "atomPositionNumberInMol": 0,
          "apClass": {
            "rule": "Xlig",
            "subClass": 0,
            "bndTyp": "SINGLE"
          },
          "dirVec": {
            "x": -2.3339,
            "y": -0.0087,
            "z": 0.8172
          }
        },
        {
          "id": 269052,
          "atomPositionNumber": 0,
          "atomPositionNumberInMol": 0,
          "apClass": {
            "rule": "Xlig",
            "subClass": 0,
            "bndTyp": "SINGLE"
          },
          "dirVec": {
            "x": 2.336,
            "y": -5.0E-4,
            "z": 0.829
          }
        },
        {
          "id": 269053,
          "atomPositionNumber": 0,
          "atomPositionNumberInMol": 0,
          "apClass": {
            "rule": "scaff",
            "subClass": 0,
            "bndTyp": "SINGLE"
          },
          "dirVec": {
            "x": -0.0095,
            "y": 0.0046,
            "z": -1.7113
          }
        }
      ],
      "lstSymAPs": [
        {
          "symIds": [
            0,
            1
          ]
        }
      ],
      "mol": {
        "atoms": [
          {
            "elSymbol": "Pt",
            "p3d": {
              "x": -0.0098,
              "y": 0.0049,
              "z": 0.6289
            }
          },
          {
            "elSymbol": "C",
            "p3d": {
              "x": -6.0E-4,
              "y": 0.0016,
              "z": 2.5609
            }
          },
          {
            "elSymbol": "O",
            "p3d": {
              "x": 0.0025,
              "y": -0.0041,
              "z": 3.6974
            }
          },
          {
            "elSymbol": "Du",
            "p3d": {
              "x": -0.007,
              "y": 1.0013,
              "z": 0.6372
            }
          },
          {
            "elSymbol": "Du",
            "p3d": {
              "x": -0.0014,
              "y": 0.9902,
              "z": 2.5698
            }
          }
        ],
        "bonds": [
          {
            "atomIds": [
              1,
              2
            ],
            "bo": "TRIPLE"
          },
          {
            "atomIds": [
              0,
              1
            ],
            "bo": "SINGLE"
          },
          {
            "atomIds": [
              3,
              0
            ],
            "bo": "SINGLE"
          },
          {
            "atomIds": [
              4,
              1
            ],
            "bo": "SINGLE"
          }
        ]
      },
      "vertexId": 72,
      "buildingBlockId": 0,
      "buildingBlockType": "SCAFFOLD",
      "isRCV": false,
      "properties": {
        "ATTACHMENT_POINTS": "1#Xlig:0:SINGLE:-2.3339%-0.0087%0.8172,Xlig:0:SINGLE:2.3360%-0.0005%0.8290,scaff:0:SINGLE:-0.0095%0.0046%-1.7113 "
      },
      "uniquefyingPropertyKeys": [],
      "allowedMutationTypes": [
        "DELETE",
        "EXTEND",
        "CHANGEBRANCH",
        "CHANGELINK",
        "ADDLINK",
        "DELETELINK",
        "DELETECHAIN"
      ],
      "vertexType": "MolecularFragment"
    },
    {
      "lstAPs": [
        {
          "id": 269054,
          "atomPositionNumber": 0,
          "atomPositionNumberInMol": 5,
          "apClass": {
            "rule": "Xlig",
            "subClass": 1,
            "bndTyp": "SINGLE"
          },
          "dirVec": {
            "x": 0.0192,
            "y": -0.0048,
            "z": -0.5645
          }
        }
      ],
      "lstSymAPs": [],
      "mol": {
        "atoms": [
          {
            "elSymbol": "C",
            "p3d": {
              "x": -1.967,
              "y": -0.0075,
              "z": -0.4937
            }
          },
          {
            "elSymbol": "N",
            "p3d": {
              "x": -3.1263,
              "y": -0.0054,
              "z": -0.4354
            }
          },
          {
            "elSymbol": "Du",
            "p3d": {
              "x": -1.9744,
              "y": 0.9926,
              "z": -0.5036
            }
          }
        ],
        "bonds": [
          {
            "atomIds": [
              0,
              1
            ],
            "bo": "TRIPLE"
          },
          {
            "atomIds": [
              2,
              0
            ],
            "bo": "SINGLE"
          }
        ]
      },
      "vertexId": 81,
      "buildingBlockId": 65,
      "buildingBlockType": "FRAGMENT",
      "isRCV": false,
      "properties": {
        "ATTACHMENT_POINTS": "1#Xlig:1:SINGLE:0.0192%-0.0048%-0.5645 "
      },
      "uniquefyingPropertyKeys": [],
      "allowedMutationTypes": [
        "DELETE",
        "EXTEND",
        "CHANGEBRANCH",
        "CHANGELINK",
        "ADDLINK",
        "DELETELINK",
        "DELETECHAIN"
      ],
      "vertexType": "MolecularFragment"
    },
    {
      "lstAPs": [
        {
          "id": 269055,
          "atomPositionNumber": 0,
          "atomPositionNumberInMol": 8,
          "apClass": {
            "rule": "LBisAminoPhosphineN",
            "subClass": 0,
            "bndTyp": "SINGLE"
          },
          "dirVec": {
            "x": -1.9272,
            "y": -0.2351,
            "z": 5.6045
          }
        },
        {
          "id": 269056,
          "atomPositionNumber": 0,
          "atomPositionNumberInMol": 8,
          "apClass": {
            "rule": "LBisAminoPhosphineN",
            "subClass": 0,
            "bndTyp": "SINGLE"
          },
          "dirVec": {
            "x": -1.4136,
            "y": -2.2231,
            "z": 3.8983
          }
        },
        {
          "id": 269057,
          "atomPositionNumber": 0,
          "atomPositionNumberInMol": 8,
          "apClass": {
            "rule": "LBisAminoPhosphineSubR",
            "subClass": 0,
            "bndTyp": "SINGLE"
          },
          "dirVec": {
            "x": -3.1852,
            "y": -0.3594,
            "z": 3.1924
          }
        },
        {
          "id": 269058,
          "atomPositionNumber": 0,
          "atomPositionNumberInMol": 8,
          "apClass": {
            "rule": "MBisAminoPhosphine",
            "subClass": 1,
            "bndTyp": "SINGLE"
          },
          "dirVec": {
            "x": 0.1796,
            "y": 0.6567,
            "z": 3.3484
          }
        }
      ],
      "lstSymAPs": [
        {
          "symIds": [
            0,
            1
          ]
        }
      ],
      "mol": {
        "atoms": [
          {
            "elSymbol": "P",
            "p3d": {
              "x": -1.6038,
              "y": -0.5663,
              "z": 4.0324
            }
          }
        ],
        "bonds": []
      },
      "vertexId": 100,
      "buildingBlockId": 2,
      "buildingBlockType": "FRAGMENT",
      "isRCV": false,
      "properties": {
        "ATTACHMENT_POINTS": "1#LBisAminoPhosphineN:0:SINGLE:-1.9272%-0.2351%5.6045,LBisAminoPhosphineN:0:SINGLE:-1.4136%-2.2231%3.8983,LBisAminoPhosphineSubR:0:SINGLE:-3.1852%-0.3594%3.1924,MBisAminoPhosphine:1:SINGLE:0.1796%0.6567%3.3484 "
      },
      "uniquefyingPropertyKeys": [],
      "allowedMutationTypes": [
        "DELETE",
        "EXTEND",
        "CHANGEBRANCH",
        "CHANGELINK",
        "ADDLINK",
        "DELETELINK",
        "DELETECHAIN"
      ],
      "vertexType": "MolecularFragment"
    },
    {
      "lstAPs": [
        {
          "id": 269059,
          "atomPositionNumber": 0,
          "atomPositionNumberInMol": 61,
          "apClass": {
            "rule": "Xlig",
            "subClass": 1,
            "bndTyp": "SINGLE"
          },
          "dirVec": {
            "x": 0.0192,
            "y": -0.0048,
            "z": -0.5645
          }
        }
      ],
      "lstSymAPs": [],
      "mol": {
        "atoms": [
          {
            "elSymbol": "C",
            "p3d": {
              "x": -1.967,
              "y": -0.0075,
              "z": -0.4937
            }
          },
          {
            "elSymbol": "N",
            "p3d": {
              "x": -3.1263,
              "y": -0.0054,
              "z": -0.4354
            }
          },
          {
            "elSymbol": "Du",
            "p3d": {
              "x": -1.9744,
              "y": 0.9926,
              "z": -0.5036
            }
          }
        ],
        "bonds": [
          {
            "atomIds": [
              0,
              1
            ],
            "bo": "TRIPLE"
          },
          {
            "atomIds": [
              2,
              0
            ],
            "bo": "SINGLE"
          }
        ]
      },
      "vertexId": 87,
      "buildingBlockId": 65,
      "buildingBlockType": "FRAGMENT",
      "isRCV": false,
      "properties": {
        "ATTACHMENT_POINTS": "1#Xlig:1:SINGLE:0.0192%-0.0048%-0.5645 "
      },
      "uniquefyingPropertyKeys": [],
      "allowedMutationTypes": [
        "DELETE",
        "EXTEND",
        "CHANGEBRANCH",
        "CHANGELINK",
        "ADDLINK",
        "DELETELINK",
        "DELETECHAIN"
      ],
      "vertexType": "MolecularFragment"
    },
    {
      "lstAPs": [
        {
          "id": 269096,
          "atomPositionNumber": 0,
          "atomPositionNumberInMol": 9,
          "apClass": {
            "rule": "LAminoPhosphineCycloN",
            "subClass": 1,
            "bndTyp": "SINGLE"
          },
          "dirVec": {
            "x": 6.1199,
            "y": 9.1336,
            "z": -2.0435
          }
        }
      ],
      "lstSymAPs": [],
      "mol": {
        "atoms": [
          {
            "elSymbol": "N",
            "p3d": {
              "x": 5.8505,
              "y": 8.2355,
              "z": -3.4594
            }
          },
          {
            "elSymbol": "C",
            "p3d": {
              "x": 4.8225,
              "y": 7.2426,
              "z": -3.5412
            }
          },
          {
            "elSymbol": "C",
            "p3d": {
              "x": 4.1523,
              "y": 6.5371,
              "z": -2.5564
            }
          },
          {
            "elSymbol": "H",
            "p3d": {
              "x": 4.3784,
              "y": 6.7128,
              "z": -1.5122
            }
          },
          {
            "elSymbol": "C",
            "p3d": {
              "x": 3.2111,
              "y": 5.6125,
              "z": -2.9044
            }
          },
          {
            "elSymbol": "H",
            "p3d": {
              "x": 2.6898,
              "y": 5.0632,
              "z": -2.1205
            }
          },
          {
            "elSymbol": "C",
            "p3d": {
              "x": 2.8931,
              "y": 5.3499,
              "z": -4.2772
            }
          },
          {
            "elSymbol": "H",
            "p3d": {
              "x": 2.1461,
              "y": 4.6131,
              "z": -4.5621
            }
          },
          {
            "elSymbol": "C",
            "p3d": {
              "x": 3.5744,
              "y": 6.0736,
              "z": -5.2446
            }
          },
          {
            "elSymbol": "H",
            "p3d": {
              "x": 3.3488,
              "y": 5.9043,
              "z": -6.2871
            }
          },
          {
            "elSymbol": "C",
            "p3d": {
              "x": 4.5213,
              "y": 6.9735,
              "z": -4.8917
            }
          },
          {
            "elSymbol": "C",
            "p3d": {
              "x": 5.318,
              "y": 7.9347,
              "z": -5.6815
            }
          },
          {
            "elSymbol": "C",
            "p3d": {
              "x": 5.3868,
              "y": 8.1589,
              "z": -7.0529
            }
          },
          {
            "elSymbol": "H",
            "p3d": {
              "x": 4.7987,
              "y": 7.5735,
              "z": -7.7667
            }
          },
          {
            "elSymbol": "C",
            "p3d": {
              "x": 6.2214,
              "y": 9.1759,
              "z": -7.4935
            }
          },
          {
            "elSymbol": "H",
            "p3d": {
              "x": 6.2395,
              "y": 9.421,
              "z": -8.5556
            }
          },
          {
            "elSymbol": "C",
            "p3d": {
              "x": 7.018,
              "y": 9.8755,
              "z": -6.613
            }
          },
          {
            "elSymbol": "H",
            "p3d": {
              "x": 7.7039,
              "y": 10.6248,
              "z": -7.0211
            }
          },
          {
            "elSymbol": "C",
            "p3d": {
              "x": 6.9587,
              "y": 9.6342,
              "z": -5.2762
            }
          },
          {
            "elSymbol": "H",
            "p3d": {
              "x": 7.5802,
              "y": 10.2259,
              "z": -4.5813
            }
          },
          {
            "elSymbol": "C",
            "p3d": {
              "x": 6.1226,
              "y": 8.6531,
              "z": -4.7938
            }
          }
        ],
        "bonds": [
          {
            "atomIds": [
              1,
              0
            ],
            "bo": "SINGLE"
          },
          {
            "atomIds": [
              2,
              1
            ],
            "bo": "SINGLE"
          },
          {
            "atomIds": [
              3,
              2
            ],
            "bo": "SINGLE"
          },
          {
            "atomIds": [
              4,
              2
            ],
            "bo": "DOUBLE"
          },
          {
            "atomIds": [
              5,
              4
            ],
            "bo": "SINGLE"
          },
          {
            "atomIds": [
              6,
              4
            ],
            "bo": "SINGLE"
          },
          {
            "atomIds": [
              7,
              6
            ],
            "bo": "SINGLE"
          },
          {
            "atomIds": [
              8,
              6
            ],
            "bo": "DOUBLE"
          },
          {
            "atomIds": [
              9,
              8
            ],
            "bo": "SINGLE"
          },
          {
            "atomIds": [
              10,
              1
            ],
            "bo": "DOUBLE"
          },
          {
            "atomIds": [
              10,
              8
            ],
            "bo": "SINGLE"
          },
          {
            "atomIds": [
              11,
              10
            ],
            "bo": "SINGLE"
          },
          {
            "atomIds": [
              11,
              12
            ],
            "bo": "SINGLE"
          },
          {
            "atomIds": [
              11,
              20
            ],
            "bo": "DOUBLE"
          },
          {
            "atomIds": [
              13,
              12
            ],
            "bo": "SINGLE"
          },
          {
            "atomIds": [
              14,
              12
            ],
            "bo": "DOUBLE"
          },
          {
            "atomIds": [
              15,
              14
            ],
            "bo": "SINGLE"
          },
          {
            "atomIds": [
              16,
              14
            ],
            "bo": "SINGLE"
          },
          {
            "atomIds": [
              17,
              16
            ],
            "bo": "SINGLE"
          },
          {
            "atomIds": [
              18,
              16
            ],
            "bo": "DOUBLE"
          },
          {
            "atomIds": [
              18,
              20
            ],
            "bo": "SINGLE"
          },
          {
            "atomIds": [
              19,
              18
            ],
            "bo": "SINGLE"
          },
          {
            "atomIds": [
              20,
              0
            ],
            "bo": "SINGLE"
          }
        ]
      },
      "vertexId": 206049,
      "buildingBlockId": 10,
      "buildingBlockType": "FRAGMENT",
      "isRCV": false,
      "properties": {
        "ATTACHMENT_POINTS": "1#LAminoPhosphineCycloN:1:SINGLE:6.1199%9.1336%-2.0435 "
      },
      "uniquefyingPropertyKeys": [],
      "allowedMutationTypes": [
        "DELETE",
        "EXTEND",
        "CHANGEBRANCH",
        "CHANGELINK",
        "ADDLINK",
        "DELETELINK",
        "DELETECHAIN"
      ],
      "vertexType": "MolecularFragment"
    },
    {
      "lstAPs": [
        {
          "id": 269097,
          "atomPositionNumber": 0,
          "atomPositionNumberInMol": 30,
          "apClass": {
            "rule": "LAminoPhosphineCycloN",
            "subClass": 1,
            "bndTyp": "SINGLE"
          },
          "dirVec": {
            "x": 6.1199,
            "y": 9.1336,
            "z": -2.0435
          }
        }
      ],
      "lstSymAPs": [],
      "mol": {
        "atoms": [
          {
            "elSymbol": "N",
            "p3d": {
              "x": 5.8505,
              "y": 8.2355,
              "z": -3.4594
            }
          },
          {
            "elSymbol": "C",
            "p3d": {
              "x": 4.8225,
              "y": 7.2426,
              "z": -3.5412
            }
          },
          {
            "elSymbol": "C",
            "p3d": {
              "x": 4.1523,
              "y": 6.5371,
              "z": -2.5564
            }
          },
          {
            "elSymbol": "H",
            "p3d": {
              "x": 4.3784,
              "y": 6.7128,
              "z": -1.5122
            }
          },
          {
            "elSymbol": "C",
            "p3d": {
              "x": 3.2111,
              "y": 5.6125,
              "z": -2.9044
            }
          },
          {
            "elSymbol": "H",
            "p3d": {
              "x": 2.6898,
              "y": 5.0632,
              "z": -2.1205
            }
          },
          {
            "elSymbol": "C",
            "p3d": {
              "x": 2.8931,
              "y": 5.3499,
              "z": -4.2772
            }
          },
          {
            "elSymbol": "H",
            "p3d": {
              "x": 2.1461,
              "y": 4.6131,
              "z": -4.5621
            }
          },
          {
            "elSymbol": "C",
            "p3d": {
              "x": 3.5744,
              "y": 6.0736,
              "z": -5.2446
            }
          },
          {
            "elSymbol": "H",
            "p3d": {
              "x": 3.3488,
              "y": 5.9043,
              "z": -6.2871
            }
          },
          {
            "elSymbol": "C",
            "p3d": {
              "x": 4.5213,
              "y": 6.9735,
              "z": -4.8917
            }
          },
          {
            "elSymbol": "C",
            "p3d": {
              "x": 5.318,
              "y": 7.9347,
              "z": -5.6815
            }
          },
          {
            "elSymbol": "C",
            "p3d": {
              "x": 5.3868,
              "y": 8.1589,
              "z": -7.0529
            }
          },
          {
            "elSymbol": "H",
            "p3d": {
              "x": 4.7987,
              "y": 7.5735,
              "z": -7.7667
            }
          },
          {
            "elSymbol": "C",
            "p3d": {
              "x": 6.2214,
              "y": 9.1759,
              "z": -7.4935
            }
          },
          {
            "elSymbol": "H",
            "p3d": {
              "x": 6.2395,
              "y": 9.421,
              "z": -8.5556
            }
          },
          {
            "elSymbol": "C",
            "p3d": {
              "x": 7.018,
              "y": 9.8755,
              "z": -6.613
            }
          },
          {
            "elSymbol": "H",
            "p3d": {
              "x": 7.7039,
              "y": 10.6248,
              "z": -7.0211
            }
          },
          {
            "elSymbol": "C",
            "p3d": {
              "x": 6.9587,
              "y": 9.6342,
              "z": -5.2762
            }
          },
          {
            "elSymbol": "H",
            "p3d": {
              "x": 7.5802,
              "y": 10.2259,
              "z": -4.5813
            }
          },
          {
            "elSymbol": "C",
            "p3d": {
              "x": 6.1226,
              "y": 8.6531,
              "z": -4.7938
            }
          }
        ],
        "bonds": [
          {
            "atomIds": [
              1,
              0
            ],
            "bo": "SINGLE"
          },
          {
            "atomIds": [
              2,
              1
            ],
            "bo": "SINGLE"
          },
          {
            "atomIds": [
              3,
              2
            ],
            "bo": "SINGLE"
          },
          {
            "atomIds": [
              4,
              2
            ],
            "bo": "DOUBLE"
          },
          {
            "atomIds": [
              5,
              4
            ],
            "bo": "SINGLE"
          },
          {
            "atomIds": [
              6,
              4
            ],
            "bo": "SINGLE"
          },
          {
            "atomIds": [
              7,
              6
            ],
            "bo": "SINGLE"
          },
          {
            "atomIds": [
              8,
              6
            ],
            "bo": "DOUBLE"
          },
          {
            "atomIds": [
              9,
              8
            ],
            "bo": "SINGLE"
          },
          {
            "atomIds": [
              10,
              1
            ],
            "bo": "DOUBLE"
          },
          {
            "atomIds": [
              10,
              8
            ],
            "bo": "SINGLE"
          },
          {
            "atomIds": [
              11,
              10
            ],
            "bo": "SINGLE"
          },
          {
            "atomIds": [
              11,
              12
            ],
            "bo": "SINGLE"
          },
          {
            "atomIds": [
              11,
              20
            ],
            "bo": "DOUBLE"
          },
          {
            "atomIds": [
              13,
              12
            ],
            "bo": "SINGLE"
          },
          {
            "atomIds": [
              14,
              12
            ],
            "bo": "DOUBLE"
          },
          {
            "atomIds": [
              15,
              14
            ],
            "bo": "SINGLE"
          },
          {
            "atomIds": [
              16,
              14
            ],
            "bo": "SINGLE"
          },
          {
            "atomIds": [
              17,
              16
            ],
            "bo": "SINGLE"
          },
          {
            "atomIds": [
              18,
              16
            ],
            "bo": "DOUBLE"
          },
          {
            "atomIds": [
              18,
              20
            ],
            "bo": "SINGLE"
          },
          {
            "atomIds": [
              19,
              18
            ],
            "bo": "SINGLE"
          },
          {
            "atomIds": [
              20,
              0
            ],
            "bo": "SINGLE"
          }
        ]
      },
      "vertexId": 205497,
      "buildingBlockId": 10,
      "buildingBlockType": "FRAGMENT",
      "isRCV": false,
      "properties": {
        "ATTACHMENT_POINTS": "1#LAminoPhosphineCycloN:1:SINGLE:6.1199%9.1336%-2.0435 "
      },
      "uniquefyingPropertyKeys": [],
      "allowedMutationTypes": [
        "DELETE",
        "EXTEND",
        "CHANGEBRANCH",
        "CHANGELINK",
        "ADDLINK",
        "DELETELINK",
        "DELETECHAIN"
      ],
      "vertexType": "MolecularFragment"
    },
    {
      "lstAPs": [
        {
          "id": 269098,
          "atomPositionNumber": 1,
          "atomPositionNumberInMol": 52,
          "apClass": {
            "rule": "SubRM",
            "subClass": 1,
            "bndTyp": "SINGLE"
          },
          "dirVec": {
            "x": 0.2868,
            "y": 0.385,
            "z": -0.643
          }
        }
      ],
      "lstSymAPs": [],
      "mol": {
        "atoms": [
          {
            "elSymbol": "C",
            "p3d": {
              "x": 1.141,
              "y": 1.0262,
              "z": 1.6347
            }
          },
          {
            "elSymbol": "C",
            "p3d": {
              "x": 0.3967,
              "y": -0.0479,
              "z": 0.8227
            }
          },
          {
            "elSymbol": "C",
            "p3d": {
              "x": 1.1459,
              "y": -1.371,
              "z": 0.9201
            }
          },
          {
            "elSymbol": "H",
            "p3d": {
              "x": 2.1461,
              "y": -1.2583,
              "z": 0.4976
            }
          },
          {
            "elSymbol": "H",
            "p3d": {
              "x": 0.6013,
              "y": -2.1408,
              "z": 0.3461
            }
          },
          {
            "elSymbol": "H",
            "p3d": {
              "x": 1.2113,
              "y": -1.6946,
              "z": 1.9559
            }
          },
          {
            "elSymbol": "H",
            "p3d": {
              "x": 2.1541,
              "y": 1.1435,
              "z": 1.2119
            }
          },
          {
            "elSymbol": "H",
            "p3d": {
              "x": 0.6143,
              "y": 1.976,
              "z": 1.5626
            }
          },
          {
            "elSymbol": "H",
            "p3d": {
              "x": 1.2058,
              "y": 0.7088,
              "z": 2.6868
            }
          },
          {
            "elSymbol": "H",
            "p3d": {
              "x": -0.6215,
              "y": -0.1789,
              "z": 1.2377
            }
          }
        ],
        "bonds": [
          {
            "atomIds": [
              0,
              1
            ],
            "bo": "SINGLE"
          },
          {
            "atomIds": [
              1,
              2
            ],
            "bo": "SINGLE"
          },
          {
            "atomIds": [
              2,
              3
            ],
            "bo": "SINGLE"
          },
          {
            "atomIds": [
              2,
              4
            ],
            "bo": "SINGLE"
          },
          {
            "atomIds": [
              2,
              5
            ],
            "bo": "SINGLE"
          },
          {
            "atomIds": [
              0,
              6
            ],
            "bo": "SINGLE"
          },
          {
            "atomIds": [
              0,
              7
            ],
            "bo": "SINGLE"
          },
          {
            "atomIds": [
              0,
              8
            ],
            "bo": "SINGLE"
          },
          {
            "atomIds": [
              1,
              9
            ],
            "bo": "SINGLE"
          }
        ]
      },
      "vertexId": 205504,
      "buildingBlockId": 32,
      "buildingBlockType": "FRAGMENT",
      "isRCV": false,
      "properties": {
        "ATTACHMENT_POINTS": "2#SubRM:1:SINGLE:0.2868%0.3850%-0.6430 "
      },
      "uniquefyingPropertyKeys": [],
      "allowedMutationTypes": [
        "DELETE",
        "EXTEND",
        "CHANGEBRANCH",
        "CHANGELINK",
        "ADDLINK",
        "DELETELINK",
        "DELETECHAIN"
      ],
      "vertexType": "MolecularFragment"
    }
  ],
  "gEdges": [
    {
      "srcAPID": 269051,
      "trgAPID": 269054,
      "bondType": "SINGLE"
    },
    {
      "srcAPID": 269053,
      "trgAPID": 269058,
      "bondType": "SINGLE"
    },
    {
      "srcAPID": 269052,
      "trgAPID": 269059,
      "bondType": "SINGLE"
    },
    {
      "srcAPID": 269056,
      "trgAPID": 269096,
      "bondType": "SINGLE"
    },
    {
      "srcAPID": 269055,
      "trgAPID": 269097,
      "bondType": "SINGLE"
    },
    {
      "srcAPID": 269057,
      "trgAPID": 269098,
      "bondType": "SINGLE"
    }
  ],
  "gRings": [],
  "symVertices": [
    {
      "symIds": [
        206049,
        205497
      ]
    }
  ]
}

> <SMILES>
[Pt](C#O)(C#N)([P](N1C=2C([H])=C([H])C([H])=C([H])C2C=3C([H])=C([H])C([H])=C(C31)[H])(N4C=5C([H])=C([H])C([H])=C([H])C5C=6C([H])=C([H])C([H])=C(C64)[H])C(C([H])([H])[H])(C([H])([H])[H])[H])C#N

$$$$
