M00010355
  CDK     04222212233D

 67 71  0  0  0  0  0  0  0  0999 V2000
   -0.0290    0.0159    3.3823 Pt  0  0  0  0  0  0  0  0  0  0  0  0
   -0.0561    0.0819    5.2984 C   0  0  0  0  0  0  0  0  0  0  0  0
   -0.0778    0.1451    6.4410 O   0  0  0  0  0  0  0  0  0  0  0  0
    0.3340   -1.9323    3.3997 C   0  0  0  0  0  0  0  0  0  0  0  0
    0.5262   -3.0724    3.3928 N   0  0  0  0  0  0  0  0  0  0  0  0
   -0.0157    0.0112    1.3602 C   0  0  1  0  0  0  0  0  0  0  0  0
   -1.0536    0.4167    0.5387 N   0  0  0  0  0  0  0  0  0  0  0  0
   -0.6604    0.2813   -0.8189 C   0  0  0  0  0  0  0  0  0  0  0  0
    0.6542   -0.1953   -0.8189 C   0  0  0  0  0  0  0  0  0  0  0  0
    1.0318   -0.3710    0.5387 N   0  0  0  0  0  0  0  0  0  0  0  0
    2.3108   -0.8670    0.9989 C   0  0  0  0  0  0  0  0  0  0  0  0
    4.8256   -1.7663    1.8023 C   0  0  0  0  0  0  0  0  0  0  0  0
    3.1731    0.0117    1.6991 C   0  0  0  0  0  0  0  0  0  0  0  0
    2.6800   -2.2094    0.7452 C   0  0  0  0  0  0  0  0  0  0  0  0
    3.9555   -2.6368    1.1474 C   0  0  0  0  0  0  0  0  0  0  0  0
    4.4370   -0.4547    2.0839 C   0  0  0  0  0  0  0  0  0  0  0  0
    4.2589   -3.6666    0.9607 H   0  0  0  0  0  0  0  0  0  0  0  0
    5.1166    0.2076    2.6182 H   0  0  0  0  0  0  0  0  0  0  0  0
    5.8130   -2.1155    2.1083 H   0  0  0  0  0  0  0  0  0  0  0  0
    2.7505    1.3932    2.0644 C   0  0  0  0  0  0  0  0  0  0  0  0
    2.1991    1.9096    1.2660 H   0  0  0  0  0  0  0  0  0  0  0  0
    3.5962    2.0413    2.3332 H   0  0  0  0  0  0  0  0  0  0  0  0
    2.0785    1.3730    2.9487 H   0  0  0  0  0  0  0  0  0  0  0  0
    1.7478   -3.1786    0.1050 C   0  0  0  0  0  0  0  0  0  0  0  0
    2.2249   -4.1450   -0.1114 H   0  0  0  0  0  0  0  0  0  0  0  0
    1.3302   -2.8113   -0.8416 H   0  0  0  0  0  0  0  0  0  0  0  0
    0.9015   -3.4010    0.7818 H   0  0  0  0  0  0  0  0  0  0  0  0
    1.5277   -0.4666   -1.9609 C   0  0  0  0  0  0  0  0  0  0  0  0
    1.0355   -1.2105   -3.0476 C   0  0  0  0  0  0  0  0  0  0  0  0
    0.0116   -1.5855   -3.0325 H   0  0  0  0  0  0  0  0  0  0  0  0
    1.8577   -1.4611   -4.1475 C   0  0  0  0  0  0  0  0  0  0  0  0
    1.4758   -2.0378   -4.9893 H   0  0  0  0  0  0  0  0  0  0  0  0
    3.1694   -0.9746   -4.1711 C   0  0  0  0  0  0  0  0  0  0  0  0
    3.8087   -1.1736   -5.0302 H   0  0  0  0  0  0  0  0  0  0  0  0
    3.6591   -0.2337   -3.0912 C   0  0  0  0  0  0  0  0  0  0  0  0
    4.6810    0.1442   -3.1083 H   0  0  0  0  0  0  0  0  0  0  0  0
    2.8434    0.0231   -1.9863 C   0  0  0  0  0  0  0  0  0  0  0  0
    3.2304    0.5994   -1.1450 H   0  0  0  0  0  0  0  0  0  0  0  0
   -1.5211    0.5878   -1.9617 C   0  0  0  0  0  0  0  0  0  0  0  0
   -1.0180    1.3680   -3.0176 C   0  0  0  0  0  0  0  0  0  0  0  0
    0.0051    1.7434   -2.9784 H   0  0  0  0  0  0  0  0  0  0  0  0
   -1.8284    1.6537   -4.1178 C   0  0  0  0  0  0  0  0  0  0  0  0
   -1.4382    2.2587   -4.9357 H   0  0  0  0  0  0  0  0  0  0  0  0
   -3.1386    1.1659   -4.1725 C   0  0  0  0  0  0  0  0  0  0  0  0
   -3.7686    1.3923   -5.0317 H   0  0  0  0  0  0  0  0  0  0  0  0
   -3.6388    0.3881   -3.1237 C   0  0  0  0  0  0  0  0  0  0  0  0
   -4.6594    0.0084   -3.1653 H   0  0  0  0  0  0  0  0  0  0  0  0
   -2.8353    0.0964   -2.0186 C   0  0  0  0  0  0  0  0  0  0  0  0
   -3.2305   -0.5084   -1.2014 H   0  0  0  0  0  0  0  0  0  0  0  0
   -2.3374    0.9033    0.9969 C   0  0  0  0  0  0  0  0  0  0  0  0
   -4.8596    1.7939    1.7832 C   0  0  0  0  0  0  0  0  0  0  0  0
   -2.6954    2.2542    0.7745 C   0  0  0  0  0  0  0  0  0  0  0  0
   -3.2105    0.0137    1.6675 C   0  0  0  0  0  0  0  0  0  0  0  0
   -4.4793    0.4750    2.0422 C   0  0  0  0  0  0  0  0  0  0  0  0
   -3.9762    2.6771    1.1636 C   0  0  0  0  0  0  0  0  0  0  0  0
   -5.1685   -0.1959    2.5525 H   0  0  0  0  0  0  0  0  0  0  0  0
   -4.2741    3.7109    0.9942 H   0  0  0  0  0  0  0  0  0  0  0  0
   -5.8511    2.1386    2.0802 H   0  0  0  0  0  0  0  0  0  0  0  0
   -1.7439    3.2268    0.1681 C   0  0  0  0  0  0  0  0  0  0  0  0
   -0.8058    3.2661    0.7517 H   0  0  0  0  0  0  0  0  0  0  0  0
   -2.1391    4.2516    0.1513 H   0  0  0  0  0  0  0  0  0  0  0  0
   -1.4831    2.9651   -0.8670 H   0  0  0  0  0  0  0  0  0  0  0  0
   -2.7919   -1.3752    2.0122 C   0  0  0  0  0  0  0  0  0  0  0  0
   -2.0990   -1.3640    2.8793 H   0  0  0  0  0  0  0  0  0  0  0  0
   -2.2720   -1.8884    1.1912 H   0  0  0  0  0  0  0  0  0  0  0  0
   -3.6374   -2.0163    2.2985 H   0  0  0  0  0  0  0  0  0  0  0  0
   -0.4569    2.3207    3.3703 Cl  0  0  0  0  0  0  0  0  0  0  0  0
  2  3  3  0  0  0  0
  1  2  1  0  0  0  0
  4  5  3  0  0  0  0
  1  4  1  0  0  0  0
  7  6  1  0  0  0  0
  8  7  1  0  0  0  0
  9  8  2  0  0  0  0
  9 10  1  0  0  0  0
 10  6  1  0  0  0  0
  1  6  1  0  0  0  0
 11 14  1  0  0  0  0
 14 15  2  0  0  0  0
 12 15  1  0  0  0  0
 12 16  2  0  0  0  0
 13 16  1  0  0  0  0
 11 13  2  0  0  0  0
 15 17  1  0  0  0  0
 16 18  1  0  0  0  0
 12 19  1  0  0  0  0
 20 21  1  0  0  0  0
 20 22  1  0  0  0  0
 20 23  1  0  0  0  0
 13 20  1  0  0  0  0
 24 25  1  0  0  0  0
 24 26  1  0  0  0  0
 24 27  1  0  0  0  0
 14 24  1  0  0  0  0
 10 11  1  0  0  0  0
 29 28  1  0  0  0  0
 30 29  1  0  0  0  0
 31 29  2  0  0  0  0
 32 31  1  0  0  0  0
 33 31  1  0  0  0  0
 34 33  1  0  0  0  0
 35 33  2  0  0  0  0
 36 35  1  0  0  0  0
 37 28  2  0  0  0  0
 38 37  1  0  0  0  0
 35 37  1  0  0  0  0
  9 28  1  0  0  0  0
 40 39  1  0  0  0  0
 41 40  1  0  0  0  0
 42 40  2  0  0  0  0
 43 42  1  0  0  0  0
 44 42  1  0  0  0  0
 45 44  1  0  0  0  0
 46 44  2  0  0  0  0
 47 46  1  0  0  0  0
 48 39  2  0  0  0  0
 49 48  1  0  0  0  0
 46 48  1  0  0  0  0
  8 39  1  0  0  0  0
 50 53  1  0  0  0  0
 53 54  2  0  0  0  0
 51 54  1  0  0  0  0
 51 55  2  0  0  0  0
 52 55  1  0  0  0  0
 50 52  2  0  0  0  0
 54 56  1  0  0  0  0
 55 57  1  0  0  0  0
 51 58  1  0  0  0  0
 59 60  1  0  0  0  0
 59 61  1  0  0  0  0
 59 62  1  0  0  0  0
 52 59  1  0  0  0  0
 63 64  1  0  0  0  0
 63 65  1  0  0  0  0
 63 66  1  0  0  0  0
 53 63  1  0  0  0  0
  7 50  1  0  0  0  0
  1 67  1  0  0  0  0
M  END
> <PM6_ENERGY>
392.599

> <UID>
ZTVRIBVYTDLNLY-SLWVCRIPNA-M

> <FITNESS>
1.14455

> <GCODE>
11352

> <GraphENC>
11352 72_1_0,81_66_1,97_19_1,88_67_1,232876_38_1,232875_22_1,232116_22_1,232110_38_1, 72_0_81_0_SINGLE_Xlig:0_Xlig:1,72_2_97_0_SINGLE_scaff:0_MImidazolylidene:1,72_1_88_0_SINGLE_Xlig:0_Xlig:1,97_4_232876_0_SINGLE_LImidazolylideneSubNL:0_SubArL:1,97_3_232875_0_SINGLE_LImidazolylideneSubCS:0_LImidazolylideneSubCS:1,97_2_232116_0_SINGLE_LImidazolylideneSubCS:0_LImidazolylideneSubCS:1,97_1_232110_0_SINGLE_LImidazolylideneSubNL:0_SubArL:1, SymmetricSet [symIds=[232876, 232110]] SymmetricSet [symIds=[232875, 232116]] 

> <GraphJson>
{
  "graphId": 11352,
  "gVertices": [
    {
      "lstAPs": [
        {
          "id": 303962,
          "atomPositionNumber": 0,
          "atomPositionNumberInMol": 0,
          "apClass": {
            "rule": "Xlig",
            "subClass": 0,
            "bndTyp": "SINGLE"
          },
          "dirVec": {
            "x": -2.3339,
            "y": -0.0087,
            "z": 0.8172
          }
        },
        {
          "id": 303963,
          "atomPositionNumber": 0,
          "atomPositionNumberInMol": 0,
          "apClass": {
            "rule": "Xlig",
            "subClass": 0,
            "bndTyp": "SINGLE"
          },
          "dirVec": {
            "x": 2.336,
            "y": -5.0E-4,
            "z": 0.829
          }
        },
        {
          "id": 303964,
          "atomPositionNumber": 0,
          "atomPositionNumberInMol": 0,
          "apClass": {
            "rule": "scaff",
            "subClass": 0,
            "bndTyp": "SINGLE"
          },
          "dirVec": {
            "x": -0.0095,
            "y": 0.0046,
            "z": -1.7113
          }
        }
      ],
      "lstSymAPs": [
        {
          "symIds": [
            0,
            1
          ]
        }
      ],
      "mol": {
        "atoms": [
          {
            "elSymbol": "Pt",
            "p3d": {
              "x": -0.0098,
              "y": 0.0049,
              "z": 0.6289
            }
          },
          {
            "elSymbol": "C",
            "p3d": {
              "x": -6.0E-4,
              "y": 0.0016,
              "z": 2.5609
            }
          },
          {
            "elSymbol": "O",
            "p3d": {
              "x": 0.0025,
              "y": -0.0041,
              "z": 3.6974
            }
          },
          {
            "elSymbol": "Du",
            "p3d": {
              "x": -0.007,
              "y": 1.0013,
              "z": 0.6372
            }
          },
          {
            "elSymbol": "Du",
            "p3d": {
              "x": -0.0014,
              "y": 0.9902,
              "z": 2.5698
            }
          }
        ],
        "bonds": [
          {
            "atomIds": [
              1,
              2
            ],
            "bo": "TRIPLE"
          },
          {
            "atomIds": [
              0,
              1
            ],
            "bo": "SINGLE"
          },
          {
            "atomIds": [
              3,
              0
            ],
            "bo": "SINGLE"
          },
          {
            "atomIds": [
              4,
              1
            ],
            "bo": "SINGLE"
          }
        ]
      },
      "vertexId": 72,
      "buildingBlockId": 0,
      "buildingBlockType": "SCAFFOLD",
      "isRCV": false,
      "properties": {
        "ATTACHMENT_POINTS": "1#Xlig:0:SINGLE:-2.3339%-0.0087%0.8172,Xlig:0:SINGLE:2.3360%-0.0005%0.8290,scaff:0:SINGLE:-0.0095%0.0046%-1.7113 "
      },
      "uniquefyingPropertyKeys": [],
      "allowedMutationTypes": [
        "DELETE",
        "EXTEND",
        "CHANGEBRANCH",
        "CHANGELINK",
        "ADDLINK",
        "DELETELINK",
        "DELETECHAIN"
      ],
      "vertexType": "MolecularFragment"
    },
    {
      "lstAPs": [
        {
          "id": 303965,
          "atomPositionNumber": 0,
          "atomPositionNumberInMol": 5,
          "apClass": {
            "rule": "Xlig",
            "subClass": 1,
            "bndTyp": "SINGLE"
          },
          "dirVec": {
            "x": 0.0192,
            "y": -0.0048,
            "z": -0.5645
          }
        }
      ],
      "lstSymAPs": [],
      "mol": {
        "atoms": [
          {
            "elSymbol": "C",
            "p3d": {
              "x": -1.967,
              "y": -0.0075,
              "z": -0.4937
            }
          },
          {
            "elSymbol": "N",
            "p3d": {
              "x": -3.1263,
              "y": -0.0054,
              "z": -0.4354
            }
          },
          {
            "elSymbol": "Du",
            "p3d": {
              "x": -1.9744,
              "y": 0.9926,
              "z": -0.5036
            }
          }
        ],
        "bonds": [
          {
            "atomIds": [
              0,
              1
            ],
            "bo": "TRIPLE"
          },
          {
            "atomIds": [
              2,
              0
            ],
            "bo": "SINGLE"
          }
        ]
      },
      "vertexId": 81,
      "buildingBlockId": 65,
      "buildingBlockType": "FRAGMENT",
      "isRCV": false,
      "properties": {
        "ATTACHMENT_POINTS": "1#Xlig:1:SINGLE:0.0192%-0.0048%-0.5645 "
      },
      "uniquefyingPropertyKeys": [],
      "allowedMutationTypes": [
        "DELETE",
        "EXTEND",
        "CHANGEBRANCH",
        "CHANGELINK",
        "ADDLINK",
        "DELETELINK",
        "DELETECHAIN"
      ],
      "vertexType": "MolecularFragment"
    },
    {
      "lstAPs": [
        {
          "id": 303966,
          "atomPositionNumber": 0,
          "atomPositionNumberInMol": 8,
          "apClass": {
            "rule": "MImidazolylidene",
            "subClass": 1,
            "bndTyp": "SINGLE"
          },
          "dirVec": {
            "x": 6.9056,
            "y": 0.097,
            "z": 12.1004
          }
        },
        {
          "id": 303967,
          "atomPositionNumber": 1,
          "atomPositionNumberInMol": 9,
          "apClass": {
            "rule": "LImidazolylideneSubNL",
            "subClass": 0,
            "bndTyp": "SINGLE"
          },
          "dirVec": {
            "x": 4.1123,
            "y": 2.1609,
            "z": 11.1322
          }
        },
        {
          "id": 303968,
          "atomPositionNumber": 2,
          "atomPositionNumberInMol": 10,
          "apClass": {
            "rule": "LImidazolylideneSubCS",
            "subClass": 0,
            "bndTyp": "SINGLE"
          },
          "dirVec": {
            "x": 2.203,
            "y": 3.3086,
            "z": 13.3341
          }
        },
        {
          "id": 303969,
          "atomPositionNumber": 3,
          "atomPositionNumberInMol": 11,
          "apClass": {
            "rule": "LImidazolylideneSubCS",
            "subClass": 0,
            "bndTyp": "SINGLE"
          },
          "dirVec": {
            "x": 3.4334,
            "y": 2.3948,
            "z": 16.1586
          }
        },
        {
          "id": 303970,
          "atomPositionNumber": 4,
          "atomPositionNumberInMol": 12,
          "apClass": {
            "rule": "LImidazolylideneSubNL",
            "subClass": 0,
            "bndTyp": "SINGLE"
          },
          "dirVec": {
            "x": 5.9067,
            "y": 0.5846,
            "z": 15.5163
          }
        }
      ],
      "lstSymAPs": [
        {
          "symIds": [
            1,
            4
          ]
        },
        {
          "symIds": [
            2,
            3
          ]
        }
      ],
      "mol": {
        "atoms": [
          {
            "elSymbol": "C",
            "p3d": {
              "x": 5.2812,
              "y": 1.2018,
              "z": 13.1656
            }
          },
          {
            "elSymbol": "N",
            "p3d": {
              "x": 4.2675,
              "y": 1.9426,
              "z": 12.5989
            }
          },
          {
            "elSymbol": "C",
            "p3d": {
              "x": 3.4407,
              "y": 2.4761,
              "z": 13.582
            }
          },
          {
            "elSymbol": "C",
            "p3d": {
              "x": 3.9357,
              "y": 2.0507,
              "z": 14.777
            }
          },
          {
            "elSymbol": "N",
            "p3d": {
              "x": 5.0694,
              "y": 1.2634,
              "z": 14.5115
            }
          }
        ],
        "bonds": [
          {
            "atomIds": [
              1,
              0
            ],
            "bo": "SINGLE"
          },
          {
            "atomIds": [
              2,
              1
            ],
            "bo": "SINGLE"
          },
          {
            "atomIds": [
              3,
              2
            ],
            "bo": "DOUBLE"
          },
          {
            "atomIds": [
              3,
              4
            ],
            "bo": "SINGLE"
          },
          {
            "atomIds": [
              4,
              0
            ],
            "bo": "SINGLE"
          }
        ]
      },
      "vertexId": 97,
      "buildingBlockId": 18,
      "buildingBlockType": "FRAGMENT",
      "isRCV": false,
      "properties": {
        "ATTACHMENT_POINTS": "1#MImidazolylidene:1:SINGLE:6.9056%0.0970%12.1004 2#LImidazolylideneSubNL:0:SINGLE:4.1123%2.1609%11.1322 3#LImidazolylideneSubCS:0:SINGLE:2.2030%3.3086%13.3341 4#LImidazolylideneSubCS:0:SINGLE:3.4334%2.3948%16.1586 5#LImidazolylideneSubNL:0:SINGLE:5.9067%0.5846%15.5163 "
      },
      "uniquefyingPropertyKeys": [],
      "allowedMutationTypes": [
        "DELETE",
        "EXTEND",
        "CHANGEBRANCH",
        "CHANGELINK",
        "ADDLINK",
        "DELETELINK",
        "DELETECHAIN"
      ],
      "vertexType": "MolecularFragment"
    },
    {
      "lstAPs": [
        {
          "id": 303971,
          "atomPositionNumber": 0,
          "atomPositionNumberInMol": 69,
          "apClass": {
            "rule": "Xlig",
            "subClass": 1,
            "bndTyp": "SINGLE"
          },
          "dirVec": {
            "x": -0.0053,
            "y": -0.0027,
            "z": 0.63
          }
        }
      ],
      "lstSymAPs": [],
      "mol": {
        "atoms": [
          {
            "elSymbol": "Cl",
            "p3d": {
              "x": 2.3243,
              "y": -0.0063,
              "z": 0.8189
            }
          }
        ],
        "bonds": []
      },
      "vertexId": 88,
      "buildingBlockId": 66,
      "buildingBlockType": "FRAGMENT",
      "isRCV": false,
      "properties": {
        "ATTACHMENT_POINTS": "1#Xlig:1:SINGLE:-0.0053%-0.0027%0.6300 "
      },
      "uniquefyingPropertyKeys": [],
      "allowedMutationTypes": [
        "DELETE",
        "EXTEND",
        "CHANGEBRANCH",
        "CHANGELINK",
        "ADDLINK",
        "DELETELINK",
        "DELETECHAIN"
      ],
      "vertexType": "MolecularFragment"
    },
    {
      "lstAPs": [
        {
          "id": 304014,
          "atomPositionNumber": 0,
          "atomPositionNumberInMol": 13,
          "apClass": {
            "rule": "SubArL",
            "subClass": 1,
            "bndTyp": "SINGLE"
          },
          "dirVec": {
            "x": 0.2957,
            "y": 0.3816,
            "z": -0.6358
          }
        }
      ],
      "lstSymAPs": [],
      "mol": {
        "atoms": [
          {
            "elSymbol": "C",
            "p3d": {
              "x": 1.7088,
              "y": 0.551,
              "z": -1.2192
            }
          },
          {
            "elSymbol": "C",
            "p3d": {
              "x": 4.2535,
              "y": 0.8673,
              "z": -2.2548
            }
          },
          {
            "elSymbol": "C",
            "p3d": {
              "x": 2.3329,
              "y": 1.7979,
              "z": -1.1377
            }
          },
          {
            "elSymbol": "C",
            "p3d": {
              "x": 2.3315,
              "y": -0.5114,
              "z": -1.8171
            }
          },
          {
            "elSymbol": "C",
            "p3d": {
              "x": 3.6062,
              "y": -0.3595,
              "z": -2.3299
            }
          },
          {
            "elSymbol": "C",
            "p3d": {
              "x": 3.6205,
              "y": 1.9526,
              "z": -1.657
            }
          },
          {
            "elSymbol": "H",
            "p3d": {
              "x": 4.116,
              "y": -1.2062,
              "z": -2.8187
            }
          },
          {
            "elSymbol": "H",
            "p3d": {
              "x": 4.1193,
              "y": 2.9144,
              "z": -1.5883
            }
          },
          {
            "elSymbol": "H",
            "p3d": {
              "x": 5.2485,
              "y": 0.9961,
              "z": -2.6688
            }
          },
          {
            "elSymbol": "C",
            "p3d": {
              "x": 1.6389,
              "y": 2.9732,
              "z": -0.4581
            }
          },
          {
            "elSymbol": "H",
            "p3d": {
              "x": 2.3787,
              "y": 3.6649,
              "z": -0.0604
            }
          },
          {
            "elSymbol": "H",
            "p3d": {
              "x": 1.0049,
              "y": 2.601,
              "z": 0.3676
            }
          },
          {
            "elSymbol": "H",
            "p3d": {
              "x": 1.0013,
              "y": 3.4961,
              "z": -1.199
            }
          },
          {
            "elSymbol": "C",
            "p3d": {
              "x": 1.6397,
              "y": -1.8757,
              "z": -1.9164
            }
          },
          {
            "elSymbol": "H",
            "p3d": {
              "x": 2.3747,
              "y": -2.6603,
              "z": -1.9613
            }
          },
          {
            "elSymbol": "H",
            "p3d": {
              "x": 1.0044,
              "y": -1.9015,
              "z": -2.8054
            }
          },
          {
            "elSymbol": "H",
            "p3d": {
              "x": 1.0057,
              "y": -2.0243,
              "z": -1.0149
            }
          }
        ],
        "bonds": [
          {
            "atomIds": [
              0,
              3
            ],
            "bo": "SINGLE"
          },
          {
            "atomIds": [
              3,
              4
            ],
            "bo": "DOUBLE"
          },
          {
            "atomIds": [
              1,
              4
            ],
            "bo": "SINGLE"
          },
          {
            "atomIds": [
              1,
              5
            ],
            "bo": "DOUBLE"
          },
          {
            "atomIds": [
              2,
              5
            ],
            "bo": "SINGLE"
          },
          {
            "atomIds": [
              0,
              2
            ],
            "bo": "DOUBLE"
          },
          {
            "atomIds": [
              4,
              6
            ],
            "bo": "SINGLE"
          },
          {
            "atomIds": [
              5,
              7
            ],
            "bo": "SINGLE"
          },
          {
            "atomIds": [
              1,
              8
            ],
            "bo": "SINGLE"
          },
          {
            "atomIds": [
              9,
              10
            ],
            "bo": "SINGLE"
          },
          {
            "atomIds": [
              9,
              11
            ],
            "bo": "SINGLE"
          },
          {
            "atomIds": [
              9,
              12
            ],
            "bo": "SINGLE"
          },
          {
            "atomIds": [
              2,
              9
            ],
            "bo": "SINGLE"
          },
          {
            "atomIds": [
              13,
              14
            ],
            "bo": "SINGLE"
          },
          {
            "atomIds": [
              13,
              15
            ],
            "bo": "SINGLE"
          },
          {
            "atomIds": [
              13,
              16
            ],
            "bo": "SINGLE"
          },
          {
            "atomIds": [
              3,
              13
            ],
            "bo": "SINGLE"
          }
        ]
      },
      "vertexId": 232876,
      "buildingBlockId": 37,
      "buildingBlockType": "FRAGMENT",
      "isRCV": false,
      "properties": {
        "ATTACHMENT_POINTS": "1#SubArL:1:SINGLE:0.2957%0.3816%-0.6358 "
      },
      "uniquefyingPropertyKeys": [],
      "allowedMutationTypes": [
        "DELETE",
        "EXTEND",
        "CHANGEBRANCH",
        "CHANGELINK",
        "ADDLINK",
        "DELETELINK",
        "DELETECHAIN"
      ],
      "vertexType": "MolecularFragment"
    },
    {
      "lstAPs": [
        {
          "id": 304015,
          "atomPositionNumber": 0,
          "atomPositionNumberInMol": 30,
          "apClass": {
            "rule": "LImidazolylideneSubCS",
            "subClass": 1,
            "bndTyp": "SINGLE"
          },
          "dirVec": {
            "x": -0.2332,
            "y": -4.1999,
            "z": 3.5795
          }
        }
      ],
      "lstSymAPs": [],
      "mol": {
        "atoms": [
          {
            "elSymbol": "C",
            "p3d": {
              "x": 0.8656,
              "y": -5.2062,
              "z": 3.807
            }
          },
          {
            "elSymbol": "C",
            "p3d": {
              "x": 1.054,
              "y": -6.2399,
              "z": 2.8975
            }
          },
          {
            "elSymbol": "H",
            "p3d": {
              "x": 0.3991,
              "y": -6.3501,
              "z": 2.038
            }
          },
          {
            "elSymbol": "C",
            "p3d": {
              "x": 2.0673,
              "y": -7.188,
              "z": 3.1349
            }
          },
          {
            "elSymbol": "H",
            "p3d": {
              "x": 2.2054,
              "y": -7.9981,
              "z": 2.4322
            }
          },
          {
            "elSymbol": "C",
            "p3d": {
              "x": 2.901,
              "y": -7.078,
              "z": 4.2128
            }
          },
          {
            "elSymbol": "H",
            "p3d": {
              "x": 3.6958,
              "y": -7.8112,
              "z": 4.3872
            }
          },
          {
            "elSymbol": "C",
            "p3d": {
              "x": 2.7401,
              "y": -6.0405,
              "z": 5.1034
            }
          },
          {
            "elSymbol": "H",
            "p3d": {
              "x": 3.412,
              "y": -5.9498,
              "z": 5.9565
            }
          },
          {
            "elSymbol": "C",
            "p3d": {
              "x": 1.7365,
              "y": -5.0846,
              "z": 4.9051
            }
          },
          {
            "elSymbol": "H",
            "p3d": {
              "x": 1.6174,
              "y": -4.2762,
              "z": 5.6042
            }
          }
        ],
        "bonds": [
          {
            "atomIds": [
              1,
              0
            ],
            "bo": "SINGLE"
          },
          {
            "atomIds": [
              2,
              1
            ],
            "bo": "SINGLE"
          },
          {
            "atomIds": [
              3,
              1
            ],
            "bo": "DOUBLE"
          },
          {
            "atomIds": [
              4,
              3
            ],
            "bo": "SINGLE"
          },
          {
            "atomIds": [
              5,
              3
            ],
            "bo": "SINGLE"
          },
          {
            "atomIds": [
              6,
              5
            ],
            "bo": "SINGLE"
          },
          {
            "atomIds": [
              7,
              5
            ],
            "bo": "DOUBLE"
          },
          {
            "atomIds": [
              8,
              7
            ],
            "bo": "SINGLE"
          },
          {
            "atomIds": [
              9,
              0
            ],
            "bo": "DOUBLE"
          },
          {
            "atomIds": [
              10,
              9
            ],
            "bo": "SINGLE"
          },
          {
            "atomIds": [
              7,
              9
            ],
            "bo": "SINGLE"
          }
        ]
      },
      "vertexId": 232875,
      "buildingBlockId": 21,
      "buildingBlockType": "FRAGMENT",
      "isRCV": false,
      "properties": {
        "ATTACHMENT_POINTS": "1#LImidazolylideneSubCS:1:SINGLE:-0.2332%-4.1999%3.5795 "
      },
      "uniquefyingPropertyKeys": [],
      "allowedMutationTypes": [
        "DELETE",
        "EXTEND",
        "CHANGEBRANCH",
        "CHANGELINK",
        "ADDLINK",
        "DELETELINK",
        "DELETECHAIN"
      ],
      "vertexType": "MolecularFragment"
    },
    {
      "lstAPs": [
        {
          "id": 304016,
          "atomPositionNumber": 0,
          "atomPositionNumberInMol": 41,
          "apClass": {
            "rule": "LImidazolylideneSubCS",
            "subClass": 1,
            "bndTyp": "SINGLE"
          },
          "dirVec": {
            "x": -0.2332,
            "y": -4.1999,
            "z": 3.5795
          }
        }
      ],
      "lstSymAPs": [],
      "mol": {
        "atoms": [
          {
            "elSymbol": "C",
            "p3d": {
              "x": 0.8656,
              "y": -5.2062,
              "z": 3.807
            }
          },
          {
            "elSymbol": "C",
            "p3d": {
              "x": 1.054,
              "y": -6.2399,
              "z": 2.8975
            }
          },
          {
            "elSymbol": "H",
            "p3d": {
              "x": 0.3991,
              "y": -6.3501,
              "z": 2.038
            }
          },
          {
            "elSymbol": "C",
            "p3d": {
              "x": 2.0673,
              "y": -7.188,
              "z": 3.1349
            }
          },
          {
            "elSymbol": "H",
            "p3d": {
              "x": 2.2054,
              "y": -7.9981,
              "z": 2.4322
            }
          },
          {
            "elSymbol": "C",
            "p3d": {
              "x": 2.901,
              "y": -7.078,
              "z": 4.2128
            }
          },
          {
            "elSymbol": "H",
            "p3d": {
              "x": 3.6958,
              "y": -7.8112,
              "z": 4.3872
            }
          },
          {
            "elSymbol": "C",
            "p3d": {
              "x": 2.7401,
              "y": -6.0405,
              "z": 5.1034
            }
          },
          {
            "elSymbol": "H",
            "p3d": {
              "x": 3.412,
              "y": -5.9498,
              "z": 5.9565
            }
          },
          {
            "elSymbol": "C",
            "p3d": {
              "x": 1.7365,
              "y": -5.0846,
              "z": 4.9051
            }
          },
          {
            "elSymbol": "H",
            "p3d": {
              "x": 1.6174,
              "y": -4.2762,
              "z": 5.6042
            }
          }
        ],
        "bonds": [
          {
            "atomIds": [
              1,
              0
            ],
            "bo": "SINGLE"
          },
          {
            "atomIds": [
              2,
              1
            ],
            "bo": "SINGLE"
          },
          {
            "atomIds": [
              3,
              1
            ],
            "bo": "DOUBLE"
          },
          {
            "atomIds": [
              4,
              3
            ],
            "bo": "SINGLE"
          },
          {
            "atomIds": [
              5,
              3
            ],
            "bo": "SINGLE"
          },
          {
            "atomIds": [
              6,
              5
            ],
            "bo": "SINGLE"
          },
          {
            "atomIds": [
              7,
              5
            ],
            "bo": "DOUBLE"
          },
          {
            "atomIds": [
              8,
              7
            ],
            "bo": "SINGLE"
          },
          {
            "atomIds": [
              9,
              0
            ],
            "bo": "DOUBLE"
          },
          {
            "atomIds": [
              10,
              9
            ],
            "bo": "SINGLE"
          },
          {
            "atomIds": [
              7,
              9
            ],
            "bo": "SINGLE"
          }
        ]
      },
      "vertexId": 232116,
      "buildingBlockId": 21,
      "buildingBlockType": "FRAGMENT",
      "isRCV": false,
      "properties": {
        "ATTACHMENT_POINTS": "1#LImidazolylideneSubCS:1:SINGLE:-0.2332%-4.1999%3.5795 "
      },
      "uniquefyingPropertyKeys": [],
      "allowedMutationTypes": [
        "DELETE",
        "EXTEND",
        "CHANGEBRANCH",
        "CHANGELINK",
        "ADDLINK",
        "DELETELINK",
        "DELETECHAIN"
      ],
      "vertexType": "MolecularFragment"
    },
    {
      "lstAPs": [
        {
          "id": 304017,
          "atomPositionNumber": 0,
          "atomPositionNumberInMol": 52,
          "apClass": {
            "rule": "SubArL",
            "subClass": 1,
            "bndTyp": "SINGLE"
          },
          "dirVec": {
            "x": 0.2957,
            "y": 0.3816,
            "z": -0.6358
          }
        }
      ],
      "lstSymAPs": [],
      "mol": {
        "atoms": [
          {
            "elSymbol": "C",
            "p3d": {
              "x": 1.7088,
              "y": 0.551,
              "z": -1.2192
            }
          },
          {
            "elSymbol": "C",
            "p3d": {
              "x": 4.2535,
              "y": 0.8673,
              "z": -2.2548
            }
          },
          {
            "elSymbol": "C",
            "p3d": {
              "x": 2.3329,
              "y": 1.7979,
              "z": -1.1377
            }
          },
          {
            "elSymbol": "C",
            "p3d": {
              "x": 2.3315,
              "y": -0.5114,
              "z": -1.8171
            }
          },
          {
            "elSymbol": "C",
            "p3d": {
              "x": 3.6062,
              "y": -0.3595,
              "z": -2.3299
            }
          },
          {
            "elSymbol": "C",
            "p3d": {
              "x": 3.6205,
              "y": 1.9526,
              "z": -1.657
            }
          },
          {
            "elSymbol": "H",
            "p3d": {
              "x": 4.116,
              "y": -1.2062,
              "z": -2.8187
            }
          },
          {
            "elSymbol": "H",
            "p3d": {
              "x": 4.1193,
              "y": 2.9144,
              "z": -1.5883
            }
          },
          {
            "elSymbol": "H",
            "p3d": {
              "x": 5.2485,
              "y": 0.9961,
              "z": -2.6688
            }
          },
          {
            "elSymbol": "C",
            "p3d": {
              "x": 1.6389,
              "y": 2.9732,
              "z": -0.4581
            }
          },
          {
            "elSymbol": "H",
            "p3d": {
              "x": 2.3787,
              "y": 3.6649,
              "z": -0.0604
            }
          },
          {
            "elSymbol": "H",
            "p3d": {
              "x": 1.0049,
              "y": 2.601,
              "z": 0.3676
            }
          },
          {
            "elSymbol": "H",
            "p3d": {
              "x": 1.0013,
              "y": 3.4961,
              "z": -1.199
            }
          },
          {
            "elSymbol": "C",
            "p3d": {
              "x": 1.6397,
              "y": -1.8757,
              "z": -1.9164
            }
          },
          {
            "elSymbol": "H",
            "p3d": {
              "x": 2.3747,
              "y": -2.6603,
              "z": -1.9613
            }
          },
          {
            "elSymbol": "H",
            "p3d": {
              "x": 1.0044,
              "y": -1.9015,
              "z": -2.8054
            }
          },
          {
            "elSymbol": "H",
            "p3d": {
              "x": 1.0057,
              "y": -2.0243,
              "z": -1.0149
            }
          }
        ],
        "bonds": [
          {
            "atomIds": [
              0,
              3
            ],
            "bo": "SINGLE"
          },
          {
            "atomIds": [
              3,
              4
            ],
            "bo": "DOUBLE"
          },
          {
            "atomIds": [
              1,
              4
            ],
            "bo": "SINGLE"
          },
          {
            "atomIds": [
              1,
              5
            ],
            "bo": "DOUBLE"
          },
          {
            "atomIds": [
              2,
              5
            ],
            "bo": "SINGLE"
          },
          {
            "atomIds": [
              0,
              2
            ],
            "bo": "DOUBLE"
          },
          {
            "atomIds": [
              4,
              6
            ],
            "bo": "SINGLE"
          },
          {
            "atomIds": [
              5,
              7
            ],
            "bo": "SINGLE"
          },
          {
            "atomIds": [
              1,
              8
            ],
            "bo": "SINGLE"
          },
          {
            "atomIds": [
              9,
              10
            ],
            "bo": "SINGLE"
          },
          {
            "atomIds": [
              9,
              11
            ],
            "bo": "SINGLE"
          },
          {
            "atomIds": [
              9,
              12
            ],
            "bo": "SINGLE"
          },
          {
            "atomIds": [
              2,
              9
            ],
            "bo": "SINGLE"
          },
          {
            "atomIds": [
              13,
              14
            ],
            "bo": "SINGLE"
          },
          {
            "atomIds": [
              13,
              15
            ],
            "bo": "SINGLE"
          },
          {
            "atomIds": [
              13,
              16
            ],
            "bo": "SINGLE"
          },
          {
            "atomIds": [
              3,
              13
            ],
            "bo": "SINGLE"
          }
        ]
      },
      "vertexId": 232110,
      "buildingBlockId": 37,
      "buildingBlockType": "FRAGMENT",
      "isRCV": false,
      "properties": {
        "ATTACHMENT_POINTS": "1#SubArL:1:SINGLE:0.2957%0.3816%-0.6358 "
      },
      "uniquefyingPropertyKeys": [],
      "allowedMutationTypes": [
        "DELETE",
        "EXTEND",
        "CHANGEBRANCH",
        "CHANGELINK",
        "ADDLINK",
        "DELETELINK",
        "DELETECHAIN"
      ],
      "vertexType": "MolecularFragment"
    }
  ],
  "gEdges": [
    {
      "srcAPID": 303962,
      "trgAPID": 303965,
      "bondType": "SINGLE"
    },
    {
      "srcAPID": 303964,
      "trgAPID": 303966,
      "bondType": "SINGLE"
    },
    {
      "srcAPID": 303963,
      "trgAPID": 303971,
      "bondType": "SINGLE"
    },
    {
      "srcAPID": 303970,
      "trgAPID": 304014,
      "bondType": "SINGLE"
    },
    {
      "srcAPID": 303969,
      "trgAPID": 304015,
      "bondType": "SINGLE"
    },
    {
      "srcAPID": 303968,
      "trgAPID": 304016,
      "bondType": "SINGLE"
    },
    {
      "srcAPID": 303967,
      "trgAPID": 304017,
      "bondType": "SINGLE"
    }
  ],
  "gRings": [],
  "symVertices": [
    {
      "symIds": [
        232876,
        232110
      ]
    },
    {
      "symIds": [
        232875,
        232116
      ]
    }
  ]
}

> <SMILES>
[Pt](C#O)(C#N)([C]1N(C(=C(N1C=2C(=C(C(=C(C2C([H])([H])[H])[H])[H])[H])C([H])([H])[H])C=3C([H])=C([H])C([H])=C([H])C3[H])C=4C([H])=C([H])C([H])=C([H])C4[H])C=5C(=C(C(=C(C5C([H])([H])[H])[H])[H])[H])C([H])([H])[H])Cl

$$$$
