M00001843
  CDK     04222209193D

 53 55  0  0  0  0  0  0  0  0999 V2000
   -2.3221   -0.1390   -0.3072 Pt  0  0  0  0  0  0  0  0  0  0  0  0
   -4.2678   -0.1917   -0.4218 C   0  0  0  0  0  0  0  0  0  0  0  0
   -5.4076   -0.2416   -0.5158 O   0  0  0  0  0  0  0  0  0  0  0  0
   -1.7154    1.8154    0.0530 O   0  0  0  0  0  0  0  0  0  0  0  0
   -2.6868    2.4983    0.8143 C   0  0  0  0  0  0  0  0  0  0  0  0
   -2.2793    3.4965    1.0212 H   0  0  0  0  0  0  0  0  0  0  0  0
   -2.8624    1.9594    1.7543 H   0  0  0  0  0  0  0  0  0  0  0  0
   -3.6122    2.5856    0.2312 H   0  0  0  0  0  0  0  0  0  0  0  0
   -0.0384    0.0010   -0.2625 P   0  0  0  0  0  0  0  0  0  0  0  0
    0.4019    1.3129   -1.5554 C   0  0  0  0  0  0  0  0  0  0  0  0
   -0.0462    2.3007   -1.2521 H   0  0  0  0  0  0  0  0  0  0  0  0
    1.9165    1.4581   -1.6998 C   0  0  0  0  0  0  0  0  0  0  0  0
    2.3312    1.9538   -0.7887 H   0  0  0  0  0  0  0  0  0  0  0  0
    2.1124    2.1767   -2.5259 H   0  0  0  0  0  0  0  0  0  0  0  0
    2.7202    0.1811   -1.9868 C   0  0  0  0  0  0  0  0  0  0  0  0
    3.7990    0.4107   -1.8786 H   0  0  0  0  0  0  0  0  0  0  0  0
    2.5778   -0.0965   -3.0571 H   0  0  0  0  0  0  0  0  0  0  0  0
    2.3875   -1.0385   -1.1154 C   0  0  0  0  0  0  0  0  0  0  0  0
    2.9676   -1.9037   -1.5052 H   0  0  0  0  0  0  0  0  0  0  0  0
    2.7784   -0.8782   -0.0873 H   0  0  0  0  0  0  0  0  0  0  0  0
    0.9101   -1.4382   -1.0663 C   0  0  0  0  0  0  0  0  0  0  0  0
    0.8067   -2.3634   -0.4375 H   0  0  0  0  0  0  0  0  0  0  0  0
    0.2479   -1.6997   -2.4223 C   0  0  0  0  0  0  0  0  0  0  0  0
   -0.7750   -2.1174   -2.2667 H   0  0  0  0  0  0  0  0  0  0  0  0
    0.8047   -2.5183   -2.9272 H   0  0  0  0  0  0  0  0  0  0  0  0
    0.1616   -0.5139   -3.3969 C   0  0  0  0  0  0  0  0  0  0  0  0
    1.1632   -0.3455   -3.8524 H   0  0  0  0  0  0  0  0  0  0  0  0
   -0.5050   -0.8000   -4.2360 H   0  0  0  0  0  0  0  0  0  0  0  0
   -0.3439    0.8091   -2.8015 C   0  0  0  0  0  0  0  0  0  0  0  0
   -0.2711    1.5913   -3.5880 H   0  0  0  0  0  0  0  0  0  0  0  0
   -1.4413    0.7326   -2.5891 H   0  0  0  0  0  0  0  0  0  0  0  0
    0.6490    0.2336    1.4441 C   0  0  0  0  0  0  0  0  0  0  0  0
    1.8262    0.4124    3.9908 C   0  0  0  0  0  0  0  0  0  0  0  0
    1.1102    1.4736    1.9192 C   0  0  0  0  0  0  0  0  0  0  0  0
    0.6829   -0.8950    2.2905 C   0  0  0  0  0  0  0  0  0  0  0  0
    1.2946   -0.8003    3.5515 C   0  0  0  0  0  0  0  0  0  0  0  0
    1.7193    1.5439    3.1897 C   0  0  0  0  0  0  0  0  0  0  0  0
    1.3463   -1.6739    4.1977 H   0  0  0  0  0  0  0  0  0  0  0  0
    2.1019    2.4967    3.5501 H   0  0  0  0  0  0  0  0  0  0  0  0
    2.3093    0.4745    4.9662 H   0  0  0  0  0  0  0  0  0  0  0  0
    0.9904    2.7663    1.1824 C   0  0  0  0  0  0  0  0  0  0  0  0
    1.7617    2.8596    0.3975 H   0  0  0  0  0  0  0  0  0  0  0  0
    1.1009    3.6381    1.8403 H   0  0  0  0  0  0  0  0  0  0  0  0
   -0.0045    2.8787    0.7013 H   0  0  0  0  0  0  0  0  0  0  0  0
    0.0583   -2.2128    1.9565 C   0  0  0  0  0  0  0  0  0  0  0  0
    0.5217   -2.7108    1.0859 H   0  0  0  0  0  0  0  0  0  0  0  0
   -1.0281   -2.1104    1.7461 H   0  0  0  0  0  0  0  0  0  0  0  0
    0.1329   -2.9331    2.7839 H   0  0  0  0  0  0  0  0  0  0  0  0
   -2.9492   -2.3161   -0.7803 S   0  0  0  0  0  0  0  0  0  0  0  0
   -3.2405   -2.9274    0.9021 C   0  0  0  0  0  0  0  0  0  0  0  0
   -4.2669   -2.7237    1.2214 H   0  0  0  0  0  0  0  0  0  0  0  0
   -2.5428   -2.4594    1.6148 H   0  0  0  0  0  0  0  0  0  0  0  0
   -3.0857   -4.0123    0.9176 H   0  0  0  0  0  0  0  0  0  0  0  0
  2  3  3  0  0  0  0
  1  2  1  0  0  0  0
  5  6  1  0  0  0  0
  5  7  1  0  0  0  0
  5  8  1  0  0  0  0
  4  5  1  0  0  0  0
  1  4  1  0  0  0  0
 10  9  1  0  0  0  0
 10 11  1  0  0  0  0
 12 10  1  0  0  0  0
 13 12  1  0  0  0  0
 14 12  1  0  0  0  0
 15 12  1  0  0  0  0
 16 15  1  0  0  0  0
 17 15  1  0  0  0  0
 18 15  1  0  0  0  0
 18 21  1  0  0  0  0
 19 18  1  0  0  0  0
 20 18  1  0  0  0  0
 21  9  1  0  0  0  0
 21 22  1  0  0  0  0
 23 21  1  0  0  0  0
 24 23  1  0  0  0  0
 25 23  1  0  0  0  0
 26 23  1  0  0  0  0
 26 29  1  0  0  0  0
 27 26  1  0  0  0  0
 28 26  1  0  0  0  0
 29 10  1  0  0  0  0
 30 29  1  0  0  0  0
 31 29  1  0  0  0  0
  1  9  1  0  0  0  0
 32 35  1  0  0  0  0
 35 36  2  0  0  0  0
 33 36  1  0  0  0  0
 33 37  2  0  0  0  0
 34 37  1  0  0  0  0
 32 34  2  0  0  0  0
 36 38  1  0  0  0  0
 37 39  1  0  0  0  0
 33 40  1  0  0  0  0
 41 42  1  0  0  0  0
 41 43  1  0  0  0  0
 41 44  1  0  0  0  0
 34 41  1  0  0  0  0
 45 46  1  0  0  0  0
 45 47  1  0  0  0  0
 45 48  1  0  0  0  0
 35 45  1  0  0  0  0
  9 32  1  0  0  0  0
 50 51  1  0  0  0  0
 50 52  1  0  0  0  0
 50 53  1  0  0  0  0
 49 50  1  0  0  0  0
  1 49  1  0  0  0  0
M  END
> <PM6_ENERGY>
-349.849

> <UID>
QFCYASLRGLOGRC-MEQDFOEONA-M

> <FITNESS>
1.14476

> <GCODE>
2484

> <GraphENC>
2484 72_1_0,80_65_1,102_40_1,85_64_1,46285_38_1, 72_0_80_0_SINGLE_Xlig:0_Xlig:1,72_2_102_1_SINGLE_scaff:0_MPhosphine:1,72_1_85_0_SINGLE_Xlig:0_Xlig:1,102_0_46285_0_SINGLE_LPhosphineSubM:0_SubArL:1, 

> <GraphJson>
{
  "graphId": 2484,
  "gVertices": [
    {
      "lstAPs": [
        {
          "id": 62008,
          "atomPositionNumber": 0,
          "atomPositionNumberInMol": 0,
          "apClass": {
            "rule": "Xlig",
            "subClass": 0,
            "bndTyp": "SINGLE"
          },
          "dirVec": {
            "x": -2.3339,
            "y": -0.0087,
            "z": 0.8172
          }
        },
        {
          "id": 62009,
          "atomPositionNumber": 0,
          "atomPositionNumberInMol": 0,
          "apClass": {
            "rule": "Xlig",
            "subClass": 0,
            "bndTyp": "SINGLE"
          },
          "dirVec": {
            "x": 2.336,
            "y": -5.0E-4,
            "z": 0.829
          }
        },
        {
          "id": 62010,
          "atomPositionNumber": 0,
          "atomPositionNumberInMol": 0,
          "apClass": {
            "rule": "scaff",
            "subClass": 0,
            "bndTyp": "SINGLE"
          },
          "dirVec": {
            "x": -0.0095,
            "y": 0.0046,
            "z": -1.7113
          }
        }
      ],
      "lstSymAPs": [
        {
          "symIds": [
            0,
            1
          ]
        }
      ],
      "mol": {
        "atoms": [
          {
            "elSymbol": "Pt",
            "p3d": {
              "x": -0.0098,
              "y": 0.0049,
              "z": 0.6289
            }
          },
          {
            "elSymbol": "C",
            "p3d": {
              "x": -6.0E-4,
              "y": 0.0016,
              "z": 2.5609
            }
          },
          {
            "elSymbol": "O",
            "p3d": {
              "x": 0.0025,
              "y": -0.0041,
              "z": 3.6974
            }
          },
          {
            "elSymbol": "Du",
            "p3d": {
              "x": -0.007,
              "y": 1.0013,
              "z": 0.6372
            }
          },
          {
            "elSymbol": "Du",
            "p3d": {
              "x": -0.0014,
              "y": 0.9902,
              "z": 2.5698
            }
          }
        ],
        "bonds": [
          {
            "atomIds": [
              1,
              2
            ],
            "bo": "TRIPLE"
          },
          {
            "atomIds": [
              0,
              1
            ],
            "bo": "SINGLE"
          },
          {
            "atomIds": [
              3,
              0
            ],
            "bo": "SINGLE"
          },
          {
            "atomIds": [
              4,
              1
            ],
            "bo": "SINGLE"
          }
        ]
      },
      "vertexId": 72,
      "buildingBlockId": 0,
      "buildingBlockType": "SCAFFOLD",
      "isRCV": false,
      "properties": {
        "ATTACHMENT_POINTS": "1#Xlig:0:SINGLE:-2.3339%-0.0087%0.8172,Xlig:0:SINGLE:2.3360%-0.0005%0.8290,scaff:0:SINGLE:-0.0095%0.0046%-1.7113 "
      },
      "uniquefyingPropertyKeys": [],
      "allowedMutationTypes": [
        "DELETE",
        "EXTEND",
        "CHANGEBRANCH",
        "CHANGELINK",
        "ADDLINK",
        "DELETELINK",
        "DELETECHAIN"
      ],
      "vertexType": "MolecularFragment"
    },
    {
      "lstAPs": [
        {
          "id": 62011,
          "atomPositionNumber": 0,
          "atomPositionNumberInMol": 5,
          "apClass": {
            "rule": "Xlig",
            "subClass": 1,
            "bndTyp": "SINGLE"
          },
          "dirVec": {
            "x": -0.1753,
            "y": 0.0948,
            "z": -0.4464
          }
        }
      ],
      "lstSymAPs": [],
      "mol": {
        "atoms": [
          {
            "elSymbol": "O",
            "p3d": {
              "x": -0.3534,
              "y": 2.1044,
              "z": -0.7339
            }
          },
          {
            "elSymbol": "C",
            "p3d": {
              "x": -0.5345,
              "y": 2.7646,
              "z": 0.4801
            }
          },
          {
            "elSymbol": "H",
            "p3d": {
              "x": -0.3728,
              "y": 3.8337,
              "z": 0.2724
            }
          },
          {
            "elSymbol": "H",
            "p3d": {
              "x": 0.1816,
              "y": 2.4161,
              "z": 1.2384
            }
          },
          {
            "elSymbol": "H",
            "p3d": {
              "x": -1.553,
              "y": 2.6149,
              "z": 0.8489
            }
          }
        ],
        "bonds": [
          {
            "atomIds": [
              1,
              2
            ],
            "bo": "SINGLE"
          },
          {
            "atomIds": [
              1,
              3
            ],
            "bo": "SINGLE"
          },
          {
            "atomIds": [
              1,
              4
            ],
            "bo": "SINGLE"
          },
          {
            "atomIds": [
              0,
              1
            ],
            "bo": "SINGLE"
          }
        ]
      },
      "vertexId": 80,
      "buildingBlockId": 64,
      "buildingBlockType": "FRAGMENT",
      "isRCV": false,
      "properties": {
        "ATTACHMENT_POINTS": "1#Xlig:1:SINGLE:-0.1753%0.0948%-0.4464 "
      },
      "uniquefyingPropertyKeys": [],
      "allowedMutationTypes": [
        "DELETE",
        "EXTEND",
        "CHANGEBRANCH",
        "CHANGELINK",
        "ADDLINK",
        "DELETELINK",
        "DELETECHAIN"
      ],
      "vertexType": "MolecularFragment"
    },
    {
      "lstAPs": [
        {
          "id": 62012,
          "atomPositionNumber": 0,
          "atomPositionNumberInMol": 10,
          "apClass": {
            "rule": "LPhosphineSubM",
            "subClass": 0,
            "bndTyp": "SINGLE"
          },
          "dirVec": {
            "x": 7.9272,
            "y": -2.5174,
            "z": 6.3831
          }
        },
        {
          "id": 62013,
          "atomPositionNumber": 0,
          "atomPositionNumberInMol": 10,
          "apClass": {
            "rule": "MPhosphine",
            "subClass": 1,
            "bndTyp": "SINGLE"
          },
          "dirVec": {
            "x": 5.3681,
            "y": -0.8345,
            "z": 7.9017
          }
        }
      ],
      "lstSymAPs": [],
      "mol": {
        "atoms": [
          {
            "elSymbol": "P",
            "p3d": {
              "x": 6.9938,
              "y": -2.3142,
              "z": 7.9569
            }
          },
          {
            "elSymbol": "C",
            "p3d": {
              "x": 6.4789,
              "y": -4.0179,
              "z": 8.4779
            }
          },
          {
            "elSymbol": "H",
            "p3d": {
              "x": 5.6991,
              "y": -4.3449,
              "z": 7.7903
            }
          },
          {
            "elSymbol": "C",
            "p3d": {
              "x": 7.6308,
              "y": -5.0175,
              "z": 8.3775
            }
          },
          {
            "elSymbol": "H",
            "p3d": {
              "x": 7.9355,
              "y": -5.0968,
              "z": 7.3495
            }
          },
          {
            "elSymbol": "H",
            "p3d": {
              "x": 7.2741,
              "y": -5.9875,
              "z": 8.7015
            }
          },
          {
            "elSymbol": "C",
            "p3d": {
              "x": 8.8837,
              "y": -4.6364,
              "z": 9.2304
            }
          },
          {
            "elSymbol": "H",
            "p3d": {
              "x": 9.6989,
              "y": -5.3031,
              "z": 8.9301
            }
          },
          {
            "elSymbol": "H",
            "p3d": {
              "x": 8.6577,
              "y": -4.8647,
              "z": 10.2633
            }
          },
          {
            "elSymbol": "C",
            "p3d": {
              "x": 9.3638,
              "y": -3.1969,
              "z": 9.1272
            }
          },
          {
            "elSymbol": "H",
            "p3d": {
              "x": 10.1041,
              "y": -3.0308,
              "z": 9.9217
            }
          },
          {
            "elSymbol": "H",
            "p3d": {
              "x": 9.884,
              "y": -3.0664,
              "z": 8.1855
            }
          },
          {
            "elSymbol": "C",
            "p3d": {
              "x": 8.2791,
              "y": -2.1163,
              "z": 9.2588
            }
          },
          {
            "elSymbol": "H",
            "p3d": {
              "x": 8.7569,
              "y": -1.1402,
              "z": 9.1018
            }
          },
          {
            "elSymbol": "C",
            "p3d": {
              "x": 7.5764,
              "y": -2.0735,
              "z": 10.6271
            }
          },
          {
            "elSymbol": "H",
            "p3d": {
              "x": 6.9371,
              "y": -1.1906,
              "z": 10.6604
            }
          },
          {
            "elSymbol": "H",
            "p3d": {
              "x": 8.3398,
              "y": -1.9598,
              "z": 11.4008
            }
          },
          {
            "elSymbol": "C",
            "p3d": {
              "x": 6.717,
              "y": -3.3005,
              "z": 10.9996
            }
          },
          {
            "elSymbol": "H",
            "p3d": {
              "x": 7.3706,
              "y": -4.0717,
              "z": 11.3581
            }
          },
          {
            "elSymbol": "H",
            "p3d": {
              "x": 6.058,
              "y": -3.0039,
              "z": 11.8074
            }
          },
          {
            "elSymbol": "C",
            "p3d": {
              "x": 5.8297,
              "y": -3.8969,
              "z": 9.8822
            }
          },
          {
            "elSymbol": "H",
            "p3d": {
              "x": 5.5463,
              "y": -4.9079,
              "z": 10.192
            }
          },
          {
            "elSymbol": "H",
            "p3d": {
              "x": 4.9376,
              "y": -3.3154,
              "z": 9.8051
            }
          }
        ],
        "bonds": [
          {
            "atomIds": [
              1,
              0
            ],
            "bo": "SINGLE"
          },
          {
            "atomIds": [
              1,
              2
            ],
            "bo": "SINGLE"
          },
          {
            "atomIds": [
              3,
              1
            ],
            "bo": "SINGLE"
          },
          {
            "atomIds": [
              4,
              3
            ],
            "bo": "SINGLE"
          },
          {
            "atomIds": [
              5,
              3
            ],
            "bo": "SINGLE"
          },
          {
            "atomIds": [
              6,
              3
            ],
            "bo": "SINGLE"
          },
          {
            "atomIds": [
              7,
              6
            ],
            "bo": "SINGLE"
          },
          {
            "atomIds": [
              8,
              6
            ],
            "bo": "SINGLE"
          },
          {
            "atomIds": [
              9,
              6
            ],
            "bo": "SINGLE"
          },
          {
            "atomIds": [
              9,
              12
            ],
            "bo": "SINGLE"
          },
          {
            "atomIds": [
              10,
              9
            ],
            "bo": "SINGLE"
          },
          {
            "atomIds": [
              11,
              9
            ],
            "bo": "SINGLE"
          },
          {
            "atomIds": [
              12,
              0
            ],
            "bo": "SINGLE"
          },
          {
            "atomIds": [
              12,
              13
            ],
            "bo": "SINGLE"
          },
          {
            "atomIds": [
              14,
              12
            ],
            "bo": "SINGLE"
          },
          {
            "atomIds": [
              15,
              14
            ],
            "bo": "SINGLE"
          },
          {
            "atomIds": [
              16,
              14
            ],
            "bo": "SINGLE"
          },
          {
            "atomIds": [
              17,
              14
            ],
            "bo": "SINGLE"
          },
          {
            "atomIds": [
              17,
              20
            ],
            "bo": "SINGLE"
          },
          {
            "atomIds": [
              18,
              17
            ],
            "bo": "SINGLE"
          },
          {
            "atomIds": [
              19,
              17
            ],
            "bo": "SINGLE"
          },
          {
            "atomIds": [
              20,
              1
            ],
            "bo": "SINGLE"
          },
          {
            "atomIds": [
              21,
              20
            ],
            "bo": "SINGLE"
          },
          {
            "atomIds": [
              22,
              20
            ],
            "bo": "SINGLE"
          }
        ]
      },
      "vertexId": 102,
      "buildingBlockId": 39,
      "buildingBlockType": "FRAGMENT",
      "isRCV": false,
      "properties": {
        "ATTACHMENT_POINTS": "1#LPhosphineSubM:0:SINGLE:7.9272%-2.5174%6.3831,MPhosphine:1:SINGLE:5.3681%-0.8345%7.9017 "
      },
      "uniquefyingPropertyKeys": [],
      "allowedMutationTypes": [
        "DELETE",
        "EXTEND",
        "CHANGEBRANCH",
        "CHANGELINK",
        "ADDLINK",
        "DELETELINK",
        "DELETECHAIN"
      ],
      "vertexType": "MolecularFragment"
    },
    {
      "lstAPs": [
        {
          "id": 62014,
          "atomPositionNumber": 0,
          "atomPositionNumberInMol": 50,
          "apClass": {
            "rule": "Xlig",
            "subClass": 1,
            "bndTyp": "SINGLE"
          },
          "dirVec": {
            "x": -0.102,
            "y": 0.0185,
            "z": -1.0265
          }
        }
      ],
      "lstSymAPs": [],
      "mol": {
        "atoms": [
          {
            "elSymbol": "S",
            "p3d": {
              "x": -0.3267,
              "y": 2.3403,
              "z": -1.0022
            }
          },
          {
            "elSymbol": "C",
            "p3d": {
              "x": -0.626,
              "y": 2.4866,
              "z": 0.7805
            }
          },
          {
            "elSymbol": "H",
            "p3d": {
              "x": 0.1766,
              "y": 3.089,
              "z": 1.2414
            }
          },
          {
            "elSymbol": "H",
            "p3d": {
              "x": -0.651,
              "y": 1.5065,
              "z": 1.2643
            }
          },
          {
            "elSymbol": "H",
            "p3d": {
              "x": -1.5658,
              "y": 2.981,
              "z": 0.9515
            }
          }
        ],
        "bonds": [
          {
            "atomIds": [
              1,
              2
            ],
            "bo": "SINGLE"
          },
          {
            "atomIds": [
              1,
              3
            ],
            "bo": "SINGLE"
          },
          {
            "atomIds": [
              1,
              4
            ],
            "bo": "SINGLE"
          },
          {
            "atomIds": [
              0,
              1
            ],
            "bo": "SINGLE"
          }
        ]
      },
      "vertexId": 85,
      "buildingBlockId": 63,
      "buildingBlockType": "FRAGMENT",
      "isRCV": false,
      "properties": {
        "ATTACHMENT_POINTS": "1#Xlig:1:SINGLE:-0.1020%0.0185%-1.0265 "
      },
      "uniquefyingPropertyKeys": [],
      "allowedMutationTypes": [
        "DELETE",
        "EXTEND",
        "CHANGEBRANCH",
        "CHANGELINK",
        "ADDLINK",
        "DELETELINK",
        "DELETECHAIN"
      ],
      "vertexType": "MolecularFragment"
    },
    {
      "lstAPs": [
        {
          "id": 62039,
          "atomPositionNumber": 0,
          "atomPositionNumberInMol": 33,
          "apClass": {
            "rule": "SubArL",
            "subClass": 1,
            "bndTyp": "SINGLE"
          },
          "dirVec": {
            "x": 0.2957,
            "y": 0.3816,
            "z": -0.6358
          }
        }
      ],
      "lstSymAPs": [],
      "mol": {
        "atoms": [
          {
            "elSymbol": "C",
            "p3d": {
              "x": 1.7088,
              "y": 0.551,
              "z": -1.2192
            }
          },
          {
            "elSymbol": "C",
            "p3d": {
              "x": 4.2535,
              "y": 0.8673,
              "z": -2.2548
            }
          },
          {
            "elSymbol": "C",
            "p3d": {
              "x": 2.3329,
              "y": 1.7979,
              "z": -1.1377
            }
          },
          {
            "elSymbol": "C",
            "p3d": {
              "x": 2.3315,
              "y": -0.5114,
              "z": -1.8171
            }
          },
          {
            "elSymbol": "C",
            "p3d": {
              "x": 3.6062,
              "y": -0.3595,
              "z": -2.3299
            }
          },
          {
            "elSymbol": "C",
            "p3d": {
              "x": 3.6205,
              "y": 1.9526,
              "z": -1.657
            }
          },
          {
            "elSymbol": "H",
            "p3d": {
              "x": 4.116,
              "y": -1.2062,
              "z": -2.8187
            }
          },
          {
            "elSymbol": "H",
            "p3d": {
              "x": 4.1193,
              "y": 2.9144,
              "z": -1.5883
            }
          },
          {
            "elSymbol": "H",
            "p3d": {
              "x": 5.2485,
              "y": 0.9961,
              "z": -2.6688
            }
          },
          {
            "elSymbol": "C",
            "p3d": {
              "x": 1.6389,
              "y": 2.9732,
              "z": -0.4581
            }
          },
          {
            "elSymbol": "H",
            "p3d": {
              "x": 2.3787,
              "y": 3.6649,
              "z": -0.0604
            }
          },
          {
            "elSymbol": "H",
            "p3d": {
              "x": 1.0049,
              "y": 2.601,
              "z": 0.3676
            }
          },
          {
            "elSymbol": "H",
            "p3d": {
              "x": 1.0013,
              "y": 3.4961,
              "z": -1.199
            }
          },
          {
            "elSymbol": "C",
            "p3d": {
              "x": 1.6397,
              "y": -1.8757,
              "z": -1.9164
            }
          },
          {
            "elSymbol": "H",
            "p3d": {
              "x": 2.3747,
              "y": -2.6603,
              "z": -1.9613
            }
          },
          {
            "elSymbol": "H",
            "p3d": {
              "x": 1.0044,
              "y": -1.9015,
              "z": -2.8054
            }
          },
          {
            "elSymbol": "H",
            "p3d": {
              "x": 1.0057,
              "y": -2.0243,
              "z": -1.0149
            }
          }
        ],
        "bonds": [
          {
            "atomIds": [
              0,
              3
            ],
            "bo": "SINGLE"
          },
          {
            "atomIds": [
              3,
              4
            ],
            "bo": "DOUBLE"
          },
          {
            "atomIds": [
              1,
              4
            ],
            "bo": "SINGLE"
          },
          {
            "atomIds": [
              1,
              5
            ],
            "bo": "DOUBLE"
          },
          {
            "atomIds": [
              2,
              5
            ],
            "bo": "SINGLE"
          },
          {
            "atomIds": [
              0,
              2
            ],
            "bo": "DOUBLE"
          },
          {
            "atomIds": [
              4,
              6
            ],
            "bo": "SINGLE"
          },
          {
            "atomIds": [
              5,
              7
            ],
            "bo": "SINGLE"
          },
          {
            "atomIds": [
              1,
              8
            ],
            "bo": "SINGLE"
          },
          {
            "atomIds": [
              9,
              10
            ],
            "bo": "SINGLE"
          },
          {
            "atomIds": [
              9,
              11
            ],
            "bo": "SINGLE"
          },
          {
            "atomIds": [
              9,
              12
            ],
            "bo": "SINGLE"
          },
          {
            "atomIds": [
              2,
              9
            ],
            "bo": "SINGLE"
          },
          {
            "atomIds": [
              13,
              14
            ],
            "bo": "SINGLE"
          },
          {
            "atomIds": [
              13,
              15
            ],
            "bo": "SINGLE"
          },
          {
            "atomIds": [
              13,
              16
            ],
            "bo": "SINGLE"
          },
          {
            "atomIds": [
              3,
              13
            ],
            "bo": "SINGLE"
          }
        ]
      },
      "vertexId": 46285,
      "buildingBlockId": 37,
      "buildingBlockType": "FRAGMENT",
      "isRCV": false,
      "properties": {
        "ATTACHMENT_POINTS": "1#SubArL:1:SINGLE:0.2957%0.3816%-0.6358 "
      },
      "uniquefyingPropertyKeys": [],
      "allowedMutationTypes": [
        "DELETE",
        "EXTEND",
        "CHANGEBRANCH",
        "CHANGELINK",
        "ADDLINK",
        "DELETELINK",
        "DELETECHAIN"
      ],
      "vertexType": "MolecularFragment"
    }
  ],
  "gEdges": [
    {
      "srcAPID": 62008,
      "trgAPID": 62011,
      "bondType": "SINGLE"
    },
    {
      "srcAPID": 62010,
      "trgAPID": 62013,
      "bondType": "SINGLE"
    },
    {
      "srcAPID": 62009,
      "trgAPID": 62014,
      "bondType": "SINGLE"
    },
    {
      "srcAPID": 62012,
      "trgAPID": 62039,
      "bondType": "SINGLE"
    }
  ],
  "gRings": [],
  "symVertices": []
}

> <SMILES>
[Pt](C#O)(OC([H])([H])[H])([P]1(C2([H])C([H])([H])C([H])([H])C(C1([H])C([H])([H])C(C2([H])[H])([H])[H])([H])[H])C=3C(=C(C(=C(C3C([H])([H])[H])[H])[H])[H])C([H])([H])[H])SC([H])([H])[H]

$$$$
