M00005604
  CDK     04222210423D

 48 50  0  0  0  0  0  0  0  0999 V2000
   -2.6004   -0.0218    0.5940 Pt  0  0  0  0  0  0  0  0  0  0  0  0
   -4.5342   -0.0806    0.4861 C   0  0  0  0  0  0  0  0  0  0  0  0
   -5.6761   -0.1138    0.4278 O   0  0  0  0  0  0  0  0  0  0  0  0
   -2.0145    1.0771   -1.0212 O   0  0  0  0  0  0  0  0  0  0  0  0
   -3.0181    1.1632   -2.0106 C   0  0  0  0  0  0  0  0  0  0  0  0
   -2.5619    1.7033   -2.8524 H   0  0  0  0  0  0  0  0  0  0  0  0
   -3.8714    1.7314   -1.6199 H   0  0  0  0  0  0  0  0  0  0  0  0
   -3.3174    0.1561   -2.3261 H   0  0  0  0  0  0  0  0  0  0  0  0
   -0.3124    0.0789    0.5645 P   0  0  0  0  0  0  0  0  0  0  0  0
    0.5235    1.7601    0.5093 C   0  0  0  0  0  0  0  0  0  0  0  0
    1.3346    1.7909    1.5780 C   0  0  0  0  0  0  0  0  0  0  0  0
    2.2536    2.8412    2.1129 C   0  0  0  0  0  0  0  0  0  0  0  0
    1.6927    3.7604    2.3704 H   0  0  0  0  0  0  0  0  0  0  0  0
    3.0034    3.1404    1.3571 H   0  0  0  0  0  0  0  0  0  0  0  0
    2.9272    2.2259    3.3646 C   0  0  0  0  0  0  0  0  0  0  0  0
    2.7529    2.8597    4.2502 H   0  0  0  0  0  0  0  0  0  0  0  0
    4.0203    2.1725    3.2291 H   0  0  0  0  0  0  0  0  0  0  0  0
    2.3366    0.8109    3.5828 C   0  0  0  0  0  0  0  0  0  0  0  0
    3.1299    0.0408    3.6030 H   0  0  0  0  0  0  0  0  0  0  0  0
    1.8144    0.7402    4.5568 H   0  0  0  0  0  0  0  0  0  0  0  0
    1.3843    0.5806    2.4544 C   0  0  0  0  0  0  0  0  0  0  0  0
    0.6120   -0.4609    2.1144 C   0  0  0  0  0  0  0  0  0  0  0  0
    0.2733   -1.0800   -0.8263 C   0  0  0  0  0  0  0  0  0  0  0  0
   -0.4481   -3.1034   -2.1345 C   0  0  0  0  0  0  0  0  0  0  0  0
    0.9173   -1.2816   -3.2487 C   0  0  0  0  0  0  0  0  0  0  0  0
   -0.1600   -2.3573   -3.4446 C   0  0  0  0  0  0  0  0  0  0  0  0
    0.5404   -0.3062   -2.1210 C   0  0  0  0  0  0  0  0  0  0  0  0
   -0.8381   -2.1256   -1.0127 C   0  0  0  0  0  0  0  0  0  0  0  0
    0.4401   -3.6901   -1.8321 H   0  0  0  0  0  0  0  0  0  0  0  0
    1.8885   -1.7616   -3.0223 H   0  0  0  0  0  0  0  0  0  0  0  0
   -1.0907   -1.8888   -3.8193 H   0  0  0  0  0  0  0  0  0  0  0  0
   -0.3611    0.2762   -2.4226 H   0  0  0  0  0  0  0  0  0  0  0  0
   -1.8074   -1.6393   -1.2812 H   0  0  0  0  0  0  0  0  0  0  0  0
    1.2156   -1.5847   -0.4973 H   0  0  0  0  0  0  0  0  0  0  0  0
   -1.2611   -3.8378   -2.2883 H   0  0  0  0  0  0  0  0  0  0  0  0
    1.0652   -0.7212   -4.1907 H   0  0  0  0  0  0  0  0  0  0  0  0
    0.1588   -3.0734   -4.2247 H   0  0  0  0  0  0  0  0  0  0  0  0
    1.3569    0.4304   -1.9898 H   0  0  0  0  0  0  0  0  0  0  0  0
   -1.0282   -2.6979   -0.0797 H   0  0  0  0  0  0  0  0  0  0  0  0
    0.4264   -1.7711    2.7522 C   0  0  0  0  0  0  0  0  0  0  0  0
    0.5180   -2.6142    2.0514 H   0  0  0  0  0  0  0  0  0  0  0  0
    1.1576   -1.9409    3.5569 H   0  0  0  0  0  0  0  0  0  0  0  0
   -0.5765   -1.8543    3.2194 H   0  0  0  0  0  0  0  0  0  0  0  0
    0.2658    2.7780   -0.5191 C   0  0  0  0  0  0  0  0  0  0  0  0
    0.8995    2.6312   -1.4075 H   0  0  0  0  0  0  0  0  0  0  0  0
   -0.7865    2.7608   -0.8766 H   0  0  0  0  0  0  0  0  0  0  0  0
    0.4586    3.7934   -0.1428 H   0  0  0  0  0  0  0  0  0  0  0  0
   -3.1033   -1.2972    2.4768 Cl  0  0  0  0  0  0  0  0  0  0  0  0
  2  3  3  0  0  0  0
  1  2  1  0  0  0  0
  5  6  1  0  0  0  0
  5  7  1  0  0  0  0
  5  8  1  0  0  0  0
  4  5  1  0  0  0  0
  1  4  1  0  0  0  0
 10  9  1  0  0  0  0
 11 10  2  0  0  0  0
 12 11  1  0  0  0  0
 13 12  1  0  0  0  0
 14 12  1  0  0  0  0
 15 12  1  0  0  0  0
 16 15  1  0  0  0  0
 17 15  1  0  0  0  0
 18 15  1  0  0  0  0
 18 21  1  0  0  0  0
 19 18  1  0  0  0  0
 20 18  1  0  0  0  0
 21 11  1  0  0  0  0
 21 22  2  0  0  0  0
 22  9  1  0  0  0  0
  1  9  1  0  0  0  0
 23 34  1  0  0  0  0
 23 27  1  0  0  0  0
 23 28  1  0  0  0  0
 24 29  1  0  0  0  0
 24 35  1  0  0  0  0
 24 26  1  0  0  0  0
 24 28  1  0  0  0  0
 25 30  1  0  0  0  0
 25 36  1  0  0  0  0
 25 27  1  0  0  0  0
 25 26  1  0  0  0  0
 26 31  1  0  0  0  0
 26 37  1  0  0  0  0
 27 32  1  0  0  0  0
 27 38  1  0  0  0  0
 28 33  1  0  0  0  0
 28 39  1  0  0  0  0
  9 23  1  0  0  0  0
 40 41  1  0  0  0  0
 40 42  1  0  0  0  0
 40 43  1  0  0  0  0
 22 40  1  0  0  0  0
 44 45  1  0  0  0  0
 44 46  1  0  0  0  0
 44 47  1  0  0  0  0
 10 44  1  0  0  0  0
  1 48  1  0  0  0  0
M  END
> <PM6_ENERGY>
-426.997

> <UID>
JJMVXKYEYPTDQP-BTDVGTRQNA-M

> <FITNESS>
1.14387

> <GCODE>
6425

> <GraphENC>
6425 72_1_0,80_65_1,114_54_1,88_67_1,126781_35_1,127109_31_1,126786_31_1, 72_0_80_0_SINGLE_Xlig:0_Xlig:1,72_2_114_1_SINGLE_scaff:0_MPhosphole:1,72_1_88_0_SINGLE_Xlig:0_Xlig:1,114_0_126781_0_SINGLE_LPhospholeSubR:0_SubRM:1,114_3_127109_0_SINGLE_LPhospholeSubAlpha:0_SubRS:1,114_2_126786_0_SINGLE_LPhospholeSubAlpha:0_SubRS:1, SymmetricSet [symIds=[127109, 126786]] 

> <GraphJson>
{
  "graphId": 6425,
  "gVertices": [
    {
      "lstAPs": [
        {
          "id": 166754,
          "atomPositionNumber": 0,
          "atomPositionNumberInMol": 0,
          "apClass": {
            "rule": "Xlig",
            "subClass": 0,
            "bndTyp": "SINGLE"
          },
          "dirVec": {
            "x": -2.3339,
            "y": -0.0087,
            "z": 0.8172
          }
        },
        {
          "id": 166755,
          "atomPositionNumber": 0,
          "atomPositionNumberInMol": 0,
          "apClass": {
            "rule": "Xlig",
            "subClass": 0,
            "bndTyp": "SINGLE"
          },
          "dirVec": {
            "x": 2.336,
            "y": -5.0E-4,
            "z": 0.829
          }
        },
        {
          "id": 166756,
          "atomPositionNumber": 0,
          "atomPositionNumberInMol": 0,
          "apClass": {
            "rule": "scaff",
            "subClass": 0,
            "bndTyp": "SINGLE"
          },
          "dirVec": {
            "x": -0.0095,
            "y": 0.0046,
            "z": -1.7113
          }
        }
      ],
      "lstSymAPs": [
        {
          "symIds": [
            0,
            1
          ]
        }
      ],
      "mol": {
        "atoms": [
          {
            "elSymbol": "Pt",
            "p3d": {
              "x": -0.0098,
              "y": 0.0049,
              "z": 0.6289
            }
          },
          {
            "elSymbol": "C",
            "p3d": {
              "x": -6.0E-4,
              "y": 0.0016,
              "z": 2.5609
            }
          },
          {
            "elSymbol": "O",
            "p3d": {
              "x": 0.0025,
              "y": -0.0041,
              "z": 3.6974
            }
          },
          {
            "elSymbol": "Du",
            "p3d": {
              "x": -0.007,
              "y": 1.0013,
              "z": 0.6372
            }
          },
          {
            "elSymbol": "Du",
            "p3d": {
              "x": -0.0014,
              "y": 0.9902,
              "z": 2.5698
            }
          }
        ],
        "bonds": [
          {
            "atomIds": [
              1,
              2
            ],
            "bo": "TRIPLE"
          },
          {
            "atomIds": [
              0,
              1
            ],
            "bo": "SINGLE"
          },
          {
            "atomIds": [
              3,
              0
            ],
            "bo": "SINGLE"
          },
          {
            "atomIds": [
              4,
              1
            ],
            "bo": "SINGLE"
          }
        ]
      },
      "vertexId": 72,
      "buildingBlockId": 0,
      "buildingBlockType": "SCAFFOLD",
      "isRCV": false,
      "properties": {
        "ATTACHMENT_POINTS": "1#Xlig:0:SINGLE:-2.3339%-0.0087%0.8172,Xlig:0:SINGLE:2.3360%-0.0005%0.8290,scaff:0:SINGLE:-0.0095%0.0046%-1.7113 "
      },
      "uniquefyingPropertyKeys": [],
      "allowedMutationTypes": [
        "DELETE",
        "EXTEND",
        "CHANGEBRANCH",
        "CHANGELINK",
        "ADDLINK",
        "DELETELINK",
        "DELETECHAIN"
      ],
      "vertexType": "MolecularFragment"
    },
    {
      "lstAPs": [
        {
          "id": 166757,
          "atomPositionNumber": 0,
          "atomPositionNumberInMol": 5,
          "apClass": {
            "rule": "Xlig",
            "subClass": 1,
            "bndTyp": "SINGLE"
          },
          "dirVec": {
            "x": -0.1753,
            "y": 0.0948,
            "z": -0.4464
          }
        }
      ],
      "lstSymAPs": [],
      "mol": {
        "atoms": [
          {
            "elSymbol": "O",
            "p3d": {
              "x": -0.3534,
              "y": 2.1044,
              "z": -0.7339
            }
          },
          {
            "elSymbol": "C",
            "p3d": {
              "x": -0.5345,
              "y": 2.7646,
              "z": 0.4801
            }
          },
          {
            "elSymbol": "H",
            "p3d": {
              "x": -0.3728,
              "y": 3.8337,
              "z": 0.2724
            }
          },
          {
            "elSymbol": "H",
            "p3d": {
              "x": 0.1816,
              "y": 2.4161,
              "z": 1.2384
            }
          },
          {
            "elSymbol": "H",
            "p3d": {
              "x": -1.553,
              "y": 2.6149,
              "z": 0.8489
            }
          }
        ],
        "bonds": [
          {
            "atomIds": [
              1,
              2
            ],
            "bo": "SINGLE"
          },
          {
            "atomIds": [
              1,
              3
            ],
            "bo": "SINGLE"
          },
          {
            "atomIds": [
              1,
              4
            ],
            "bo": "SINGLE"
          },
          {
            "atomIds": [
              0,
              1
            ],
            "bo": "SINGLE"
          }
        ]
      },
      "vertexId": 80,
      "buildingBlockId": 64,
      "buildingBlockType": "FRAGMENT",
      "isRCV": false,
      "properties": {
        "ATTACHMENT_POINTS": "1#Xlig:1:SINGLE:-0.1753%0.0948%-0.4464 "
      },
      "uniquefyingPropertyKeys": [],
      "allowedMutationTypes": [
        "DELETE",
        "EXTEND",
        "CHANGEBRANCH",
        "CHANGELINK",
        "ADDLINK",
        "DELETELINK",
        "DELETECHAIN"
      ],
      "vertexType": "MolecularFragment"
    },
    {
      "lstAPs": [
        {
          "id": 166758,
          "atomPositionNumber": 0,
          "atomPositionNumberInMol": 10,
          "apClass": {
            "rule": "LPhospholeSubR",
            "subClass": 0,
            "bndTyp": "SINGLE"
          },
          "dirVec": {
            "x": 2.845,
            "y": 3.6959,
            "z": 7.5989
          }
        },
        {
          "id": 166759,
          "atomPositionNumber": 0,
          "atomPositionNumberInMol": 10,
          "apClass": {
            "rule": "MPhosphole",
            "subClass": 1,
            "bndTyp": "SINGLE"
          },
          "dirVec": {
            "x": 5.4116,
            "y": 3.8914,
            "z": 5.1007
          }
        },
        {
          "id": 166760,
          "atomPositionNumber": 1,
          "atomPositionNumberInMol": 11,
          "apClass": {
            "rule": "LPhospholeSubAlpha",
            "subClass": 0,
            "bndTyp": "SINGLE"
          },
          "dirVec": {
            "x": 1.4479,
            "y": 4.7532,
            "z": 4.2328
          }
        },
        {
          "id": 166761,
          "atomPositionNumber": 13,
          "atomPositionNumberInMol": 23,
          "apClass": {
            "rule": "LPhospholeSubAlpha",
            "subClass": 0,
            "bndTyp": "SINGLE"
          },
          "dirVec": {
            "x": 3.9785,
            "y": 0.2873,
            "z": 6.6145
          }
        }
      ],
      "lstSymAPs": [
        {
          "symIds": [
            2,
            3
          ]
        }
      ],
      "mol": {
        "atoms": [
          {
            "elSymbol": "P",
            "p3d": {
              "x": 3.3327,
              "y": 3.1661,
              "z": 5.9169
            }
          },
          {
            "elSymbol": "C",
            "p3d": {
              "x": 1.8776,
              "y": 3.4521,
              "z": 4.8835
            }
          },
          {
            "elSymbol": "C",
            "p3d": {
              "x": 1.2681,
              "y": 2.2569,
              "z": 4.7213
            }
          },
          {
            "elSymbol": "C",
            "p3d": {
              "x": 0.0419,
              "y": 1.8038,
              "z": 3.9627
            }
          },
          {
            "elSymbol": "H",
            "p3d": {
              "x": 0.2288,
              "y": 1.7787,
              "z": 2.8891
            }
          },
          {
            "elSymbol": "H",
            "p3d": {
              "x": -0.8031,
              "y": 2.4636,
              "z": 4.164
            }
          },
          {
            "elSymbol": "C",
            "p3d": {
              "x": -0.2053,
              "y": 0.3988,
              "z": 4.5209
            }
          },
          {
            "elSymbol": "H",
            "p3d": {
              "x": -0.5881,
              "y": -0.2518,
              "z": 3.7305
            }
          },
          {
            "elSymbol": "H",
            "p3d": {
              "x": -0.9454,
              "y": 0.4356,
              "z": 5.3348
            }
          },
          {
            "elSymbol": "C",
            "p3d": {
              "x": 1.1426,
              "y": -0.1318,
              "z": 5.057
            }
          },
          {
            "elSymbol": "H",
            "p3d": {
              "x": 0.9989,
              "y": -0.7298,
              "z": 5.9471
            }
          },
          {
            "elSymbol": "H",
            "p3d": {
              "x": 1.6318,
              "y": -0.7488,
              "z": 4.3049
            }
          },
          {
            "elSymbol": "C",
            "p3d": {
              "x": 1.9182,
              "y": 1.1071,
              "z": 5.3354
            }
          },
          {
            "elSymbol": "C",
            "p3d": {
              "x": 3.0763,
              "y": 1.3393,
              "z": 5.9864
            }
          }
        ],
        "bonds": [
          {
            "atomIds": [
              1,
              0
            ],
            "bo": "SINGLE"
          },
          {
            "atomIds": [
              2,
              1
            ],
            "bo": "DOUBLE"
          },
          {
            "atomIds": [
              3,
              2
            ],
            "bo": "SINGLE"
          },
          {
            "atomIds": [
              4,
              3
            ],
            "bo": "SINGLE"
          },
          {
            "atomIds": [
              5,
              3
            ],
            "bo": "SINGLE"
          },
          {
            "atomIds": [
              6,
              3
            ],
            "bo": "SINGLE"
          },
          {
            "atomIds": [
              7,
              6
            ],
            "bo": "SINGLE"
          },
          {
            "atomIds": [
              8,
              6
            ],
            "bo": "SINGLE"
          },
          {
            "atomIds": [
              9,
              6
            ],
            "bo": "SINGLE"
          },
          {
            "atomIds": [
              9,
              12
            ],
            "bo": "SINGLE"
          },
          {
            "atomIds": [
              10,
              9
            ],
            "bo": "SINGLE"
          },
          {
            "atomIds": [
              11,
              9
            ],
            "bo": "SINGLE"
          },
          {
            "atomIds": [
              12,
              2
            ],
            "bo": "SINGLE"
          },
          {
            "atomIds": [
              12,
              13
            ],
            "bo": "DOUBLE"
          },
          {
            "atomIds": [
              13,
              0
            ],
            "bo": "SINGLE"
          }
        ]
      },
      "vertexId": 114,
      "buildingBlockId": 53,
      "buildingBlockType": "FRAGMENT",
      "isRCV": false,
      "properties": {
        "ATTACHMENT_POINTS": "1#LPhospholeSubR:0:SINGLE:2.8450%3.6959%7.5989,MPhosphole:1:SINGLE:5.4116%3.8914%5.1007 2#LPhospholeSubAlpha:0:SINGLE:1.4479%4.7532%4.2328 14#LPhospholeSubAlpha:0:SINGLE:3.9785%0.2873%6.6145 "
      },
      "uniquefyingPropertyKeys": [],
      "allowedMutationTypes": [
        "DELETE",
        "EXTEND",
        "CHANGEBRANCH",
        "CHANGELINK",
        "ADDLINK",
        "DELETELINK",
        "DELETECHAIN"
      ],
      "vertexType": "MolecularFragment"
    },
    {
      "lstAPs": [
        {
          "id": 166762,
          "atomPositionNumber": 0,
          "atomPositionNumberInMol": 49,
          "apClass": {
            "rule": "Xlig",
            "subClass": 1,
            "bndTyp": "SINGLE"
          },
          "dirVec": {
            "x": -0.0053,
            "y": -0.0027,
            "z": 0.63
          }
        }
      ],
      "lstSymAPs": [],
      "mol": {
        "atoms": [
          {
            "elSymbol": "Cl",
            "p3d": {
              "x": 2.3243,
              "y": -0.0063,
              "z": 0.8189
            }
          }
        ],
        "bonds": []
      },
      "vertexId": 88,
      "buildingBlockId": 66,
      "buildingBlockType": "FRAGMENT",
      "isRCV": false,
      "properties": {
        "ATTACHMENT_POINTS": "1#Xlig:1:SINGLE:-0.0053%-0.0027%0.6300 "
      },
      "uniquefyingPropertyKeys": [],
      "allowedMutationTypes": [
        "DELETE",
        "EXTEND",
        "CHANGEBRANCH",
        "CHANGELINK",
        "ADDLINK",
        "DELETELINK",
        "DELETECHAIN"
      ],
      "vertexType": "MolecularFragment"
    },
    {
      "lstAPs": [
        {
          "id": 166799,
          "atomPositionNumber": 0,
          "atomPositionNumberInMol": 24,
          "apClass": {
            "rule": "SubRM",
            "subClass": 1,
            "bndTyp": "SINGLE"
          },
          "dirVec": {
            "x": 0.2917,
            "y": 0.3929,
            "z": -0.6365
          }
        }
      ],
      "lstSymAPs": [],
      "mol": {
        "atoms": [
          {
            "elSymbol": "C",
            "p3d": {
              "x": 1.7002,
              "y": 0.56,
              "z": -1.2045
            }
          },
          {
            "elSymbol": "C",
            "p3d": {
              "x": 3.564,
              "y": -0.7339,
              "z": -2.2652
            }
          },
          {
            "elSymbol": "C",
            "p3d": {
              "x": 2.9237,
              "y": 1.5034,
              "z": -3.1926
            }
          },
          {
            "elSymbol": "C",
            "p3d": {
              "x": 3.4145,
              "y": 0.0994,
              "z": -3.5498
            }
          },
          {
            "elSymbol": "C",
            "p3d": {
              "x": 1.5576,
              "y": 1.3879,
              "z": -2.5024
            }
          },
          {
            "elSymbol": "C",
            "p3d": {
              "x": 2.203,
              "y": -0.843,
              "z": -1.5702
            }
          },
          {
            "elSymbol": "H",
            "p3d": {
              "x": 4.3384,
              "y": -0.3241,
              "z": -1.6106
            }
          },
          {
            "elSymbol": "H",
            "p3d": {
              "x": 3.6361,
              "y": 2.0524,
              "z": -2.5991
            }
          },
          {
            "elSymbol": "H",
            "p3d": {
              "x": 2.7828,
              "y": -0.3911,
              "z": -4.2916
            }
          },
          {
            "elSymbol": "H",
            "p3d": {
              "x": 0.7737,
              "y": 0.9833,
              "z": -3.15
            }
          },
          {
            "elSymbol": "H",
            "p3d": {
              "x": 1.4815,
              "y": -1.3988,
              "z": -2.1783
            }
          },
          {
            "elSymbol": "H",
            "p3d": {
              "x": 2.3445,
              "y": 1.0609,
              "z": -0.4835
            }
          },
          {
            "elSymbol": "H",
            "p3d": {
              "x": 3.8429,
              "y": -1.7623,
              "z": -2.577
            }
          },
          {
            "elSymbol": "H",
            "p3d": {
              "x": 2.7428,
              "y": 2.0124,
              "z": -4.146
            }
          },
          {
            "elSymbol": "H",
            "p3d": {
              "x": 4.4291,
              "y": 0.2183,
              "z": -3.9628
            }
          },
          {
            "elSymbol": "H",
            "p3d": {
              "x": 1.2819,
              "y": 2.4034,
              "z": -2.1821
            }
          },
          {
            "elSymbol": "H",
            "p3d": {
              "x": 2.3734,
              "y": -1.3662,
              "z": -0.6149
            }
          }
        ],
        "bonds": [
          {
            "atomIds": [
              0,
              11
            ],
            "bo": "SINGLE"
          },
          {
            "atomIds": [
              0,
              4
            ],
            "bo": "SINGLE"
          },
          {
            "atomIds": [
              0,
              5
            ],
            "bo": "SINGLE"
          },
          {
            "atomIds": [
              1,
              6
            ],
            "bo": "SINGLE"
          },
          {
            "atomIds": [
              1,
              12
            ],
            "bo": "SINGLE"
          },
          {
            "atomIds": [
              1,
              3
            ],
            "bo": "SINGLE"
          },
          {
            "atomIds": [
              1,
              5
            ],
            "bo": "SINGLE"
          },
          {
            "atomIds": [
              2,
              7
            ],
            "bo": "SINGLE"
          },
          {
            "atomIds": [
              2,
              13
            ],
            "bo": "SINGLE"
          },
          {
            "atomIds": [
              2,
              4
            ],
            "bo": "SINGLE"
          },
          {
            "atomIds": [
              2,
              3
            ],
            "bo": "SINGLE"
          },
          {
            "atomIds": [
              3,
              8
            ],
            "bo": "SINGLE"
          },
          {
            "atomIds": [
              3,
              14
            ],
            "bo": "SINGLE"
          },
          {
            "atomIds": [
              4,
              9
            ],
            "bo": "SINGLE"
          },
          {
            "atomIds": [
              4,
              15
            ],
            "bo": "SINGLE"
          },
          {
            "atomIds": [
              5,
              10
            ],
            "bo": "SINGLE"
          },
          {
            "atomIds": [
              5,
              16
            ],
            "bo": "SINGLE"
          }
        ]
      },
      "vertexId": 126781,
      "buildingBlockId": 34,
      "buildingBlockType": "FRAGMENT",
      "isRCV": false,
      "properties": {
        "ATTACHMENT_POINTS": "1#SubRM:1:SINGLE:0.2917%0.3929%-0.6365 "
      },
      "uniquefyingPropertyKeys": [],
      "allowedMutationTypes": [
        "DELETE",
        "EXTEND",
        "CHANGEBRANCH",
        "CHANGELINK",
        "ADDLINK",
        "DELETELINK",
        "DELETECHAIN"
      ],
      "vertexType": "MolecularFragment"
    },
    {
      "lstAPs": [
        {
          "id": 166800,
          "atomPositionNumber": 0,
          "atomPositionNumberInMol": 41,
          "apClass": {
            "rule": "SubRS",
            "subClass": 1,
            "bndTyp": "SINGLE"
          },
          "dirVec": {
            "x": 0.2865,
            "y": 0.3959,
            "z": -0.6387
          }
        }
      ],
      "lstSymAPs": [],
      "mol": {
        "atoms": [
          {
            "elSymbol": "C",
            "p3d": {
              "x": 0.3969,
              "y": -0.0496,
              "z": 0.8235
            }
          },
          {
            "elSymbol": "H",
            "p3d": {
              "x": -0.6146,
              "y": -0.163,
              "z": 1.2402
            }
          },
          {
            "elSymbol": "H",
            "p3d": {
              "x": 0.9335,
              "y": -0.9979,
              "z": 0.8998
            }
          },
          {
            "elSymbol": "H",
            "p3d": {
              "x": 0.9252,
              "y": 0.7237,
              "z": 1.3995
            }
          }
        ],
        "bonds": [
          {
            "atomIds": [
              0,
              1
            ],
            "bo": "SINGLE"
          },
          {
            "atomIds": [
              0,
              2
            ],
            "bo": "SINGLE"
          },
          {
            "atomIds": [
              0,
              3
            ],
            "bo": "SINGLE"
          }
        ]
      },
      "vertexId": 127109,
      "buildingBlockId": 30,
      "buildingBlockType": "FRAGMENT",
      "isRCV": false,
      "properties": {
        "ATTACHMENT_POINTS": "1#SubRS:1:SINGLE:0.2865%0.3959%-0.6387 "
      },
      "uniquefyingPropertyKeys": [],
      "allowedMutationTypes": [
        "DELETE",
        "EXTEND",
        "CHANGEBRANCH",
        "CHANGELINK",
        "ADDLINK",
        "DELETELINK",
        "DELETECHAIN"
      ],
      "vertexType": "MolecularFragment"
    },
    {
      "lstAPs": [
        {
          "id": 166801,
          "atomPositionNumber": 0,
          "atomPositionNumberInMol": 45,
          "apClass": {
            "rule": "SubRS",
            "subClass": 1,
            "bndTyp": "SINGLE"
          },
          "dirVec": {
            "x": 0.2865,
            "y": 0.3959,
            "z": -0.6387
          }
        }
      ],
      "lstSymAPs": [],
      "mol": {
        "atoms": [
          {
            "elSymbol": "C",
            "p3d": {
              "x": 0.3969,
              "y": -0.0496,
              "z": 0.8235
            }
          },
          {
            "elSymbol": "H",
            "p3d": {
              "x": -0.6146,
              "y": -0.163,
              "z": 1.2402
            }
          },
          {
            "elSymbol": "H",
            "p3d": {
              "x": 0.9335,
              "y": -0.9979,
              "z": 0.8998
            }
          },
          {
            "elSymbol": "H",
            "p3d": {
              "x": 0.9252,
              "y": 0.7237,
              "z": 1.3995
            }
          }
        ],
        "bonds": [
          {
            "atomIds": [
              0,
              1
            ],
            "bo": "SINGLE"
          },
          {
            "atomIds": [
              0,
              2
            ],
            "bo": "SINGLE"
          },
          {
            "atomIds": [
              0,
              3
            ],
            "bo": "SINGLE"
          }
        ]
      },
      "vertexId": 126786,
      "buildingBlockId": 30,
      "buildingBlockType": "FRAGMENT",
      "isRCV": false,
      "properties": {
        "ATTACHMENT_POINTS": "1#SubRS:1:SINGLE:0.2865%0.3959%-0.6387 "
      },
      "uniquefyingPropertyKeys": [],
      "allowedMutationTypes": [
        "DELETE",
        "EXTEND",
        "CHANGEBRANCH",
        "CHANGELINK",
        "ADDLINK",
        "DELETELINK",
        "DELETECHAIN"
      ],
      "vertexType": "MolecularFragment"
    }
  ],
  "gEdges": [
    {
      "srcAPID": 166754,
      "trgAPID": 166757,
      "bondType": "SINGLE"
    },
    {
      "srcAPID": 166756,
      "trgAPID": 166759,
      "bondType": "SINGLE"
    },
    {
      "srcAPID": 166755,
      "trgAPID": 166762,
      "bondType": "SINGLE"
    },
    {
      "srcAPID": 166758,
      "trgAPID": 166799,
      "bondType": "SINGLE"
    },
    {
      "srcAPID": 166761,
      "trgAPID": 166800,
      "bondType": "SINGLE"
    },
    {
      "srcAPID": 166760,
      "trgAPID": 166801,
      "bondType": "SINGLE"
    }
  ],
  "gRings": [],
  "symVertices": [
    {
      "symIds": [
        127109,
        126786
      ]
    }
  ]
}

> <SMILES>
[Pt](C#O)(OC([H])([H])[H])([P]1(C(=C2C([H])([H])C([H])([H])C(C2=C1C([H])([H])[H])([H])[H])C([H])([H])[H])C3([H])C(C([H])([H])C(C([H])([H])C3([H])[H])([H])[H])([H])[H])Cl

$$$$
