M00005595
  CDK     04222210423D

 64 67  0  0  0  0  0  0  0  0999 V2000
   -2.5575   -0.8138   -0.0996 Pt  0  0  0  0  0  0  0  0  0  0  0  0
   -4.4868   -0.7077    0.0807 C   0  0  0  0  0  0  0  0  0  0  0  0
   -5.6240   -0.6357    0.1794 O   0  0  0  0  0  0  0  0  0  0  0  0
   -1.9496    1.1260    0.0283 O   0  0  0  0  0  0  0  0  0  0  0  0
   -2.4828    1.7431    1.1811 C   0  0  0  0  0  0  0  0  0  0  0  0
   -1.9216    2.6797    1.3031 H   0  0  0  0  0  0  0  0  0  0  0  0
   -2.3312    1.0877    2.0589 H   0  0  0  0  0  0  0  0  0  0  0  0
   -3.5477    1.9545    1.0258 H   0  0  0  0  0  0  0  0  0  0  0  0
   -0.2832   -0.7679   -0.2479 P   0  0  0  0  0  0  0  0  0  0  0  0
    0.5996    0.6256   -1.1357 C   0  0  0  0  0  0  0  0  0  0  0  0
    1.3843    1.1842   -0.2021 C   0  0  0  0  0  0  0  0  0  0  0  0
    2.3359    2.3367   -0.2331 C   0  0  0  0  0  0  0  0  0  0  0  0
    1.8035    3.2707   -0.5026 H   0  0  0  0  0  0  0  0  0  0  0  0
    3.1158    2.1964   -1.0053 H   0  0  0  0  0  0  0  0  0  0  0  0
    2.9511    2.4327    1.1842 C   0  0  0  0  0  0  0  0  0  0  0  0
    2.8251    3.4481    1.5958 H   0  0  0  0  0  0  0  0  0  0  0  0
    4.0373    2.2439    1.1477 H   0  0  0  0  0  0  0  0  0  0  0  0
    2.2487    1.3863    2.0830 C   0  0  0  0  0  0  0  0  0  0  0  0
    2.9812    0.7204    2.5763 H   0  0  0  0  0  0  0  0  0  0  0  0
    1.6820    1.8752    2.8992 H   0  0  0  0  0  0  0  0  0  0  0  0
    1.3319    0.6177    1.1876 C   0  0  0  0  0  0  0  0  0  0  0  0
    0.5053   -0.4139    1.4120 C   0  0  0  0  0  0  0  0  0  0  0  0
   -0.0925   -2.6409   -2.3012 C   0  0  0  0  0  0  0  0  0  0  0  0
    0.4314   -2.3904   -0.8989 C   0  0  0  0  0  0  0  0  0  0  0  0
   -1.1949   -2.7154   -2.3372 H   0  0  0  0  0  0  0  0  0  0  0  0
    0.2226   -1.8821   -3.0307 H   0  0  0  0  0  0  0  0  0  0  0  0
    0.2774   -3.6064   -2.6789 H   0  0  0  0  0  0  0  0  0  0  0  0
    0.1149   -3.2161   -0.2204 H   0  0  0  0  0  0  0  0  0  0  0  0
    1.5374   -2.3662   -0.8777 H   0  0  0  0  0  0  0  0  0  0  0  0
    0.1612   -1.1219    2.6750 C   0  0  0  0  0  0  0  0  0  0  0  0
   -1.6616   -1.9445    4.2101 C   0  0  0  0  0  0  0  0  0  0  0  0
    0.5854   -3.1311    4.1445 C   0  0  0  0  0  0  0  0  0  0  0  0
   -0.9256   -3.2828    4.3735 C   0  0  0  0  0  0  0  0  0  0  0  0
    0.8830   -2.4838    2.7840 C   0  0  0  0  0  0  0  0  0  0  0  0
   -1.3645   -1.3174    2.8406 C   0  0  0  0  0  0  0  0  0  0  0  0
   -1.3685   -1.2506    5.0201 H   0  0  0  0  0  0  0  0  0  0  0  0
    1.0287   -2.5240    4.9567 H   0  0  0  0  0  0  0  0  0  0  0  0
   -1.3384   -4.0205    3.6567 H   0  0  0  0  0  0  0  0  0  0  0  0
    0.5545   -3.1626    1.9745 H   0  0  0  0  0  0  0  0  0  0  0  0
   -1.7788   -1.9806    2.0451 H   0  0  0  0  0  0  0  0  0  0  0  0
    0.5136   -0.4813    3.5293 H   0  0  0  0  0  0  0  0  0  0  0  0
   -2.7514   -2.1021    4.3203 H   0  0  0  0  0  0  0  0  0  0  0  0
    1.0742   -4.1218    4.2020 H   0  0  0  0  0  0  0  0  0  0  0  0
   -1.1146   -3.6967    5.3811 H   0  0  0  0  0  0  0  0  0  0  0  0
    1.9712   -2.3481    2.6537 H   0  0  0  0  0  0  0  0  0  0  0  0
   -1.8897   -0.3401    2.7338 H   0  0  0  0  0  0  0  0  0  0  0  0
    0.3255    0.9771   -2.5573 C   0  0  0  0  0  0  0  0  0  0  0  0
   -0.8246    2.6681   -4.0503 C   0  0  0  0  0  0  0  0  0  0  0  0
    1.3196    1.5448   -4.8131 C   0  0  0  0  0  0  0  0  0  0  0  0
    0.4634    2.8183   -4.8732 C   0  0  0  0  0  0  0  0  0  0  0  0
    1.6322    1.1484   -3.3637 C   0  0  0  0  0  0  0  0  0  0  0  0
   -0.5193    2.2719   -2.6021 C   0  0  0  0  0  0  0  0  0  0  0  0
   -1.4830    1.9105   -4.5174 H   0  0  0  0  0  0  0  0  0  0  0  0
    0.7924    0.7166   -5.3248 H   0  0  0  0  0  0  0  0  0  0  0  0
    1.0476    3.6792   -4.4962 H   0  0  0  0  0  0  0  0  0  0  0  0
    2.2702    1.9212   -2.8960 H   0  0  0  0  0  0  0  0  0  0  0  0
    0.0139    3.0905   -2.0859 H   0  0  0  0  0  0  0  0  0  0  0  0
   -0.2690    0.1672   -3.0588 H   0  0  0  0  0  0  0  0  0  0  0  0
   -1.3951    3.6156   -4.0661 H   0  0  0  0  0  0  0  0  0  0  0  0
    2.2618    1.6978   -5.3715 H   0  0  0  0  0  0  0  0  0  0  0  0
    0.2133    3.0538   -5.9243 H   0  0  0  0  0  0  0  0  0  0  0  0
    2.2148    0.2102   -3.3406 H   0  0  0  0  0  0  0  0  0  0  0  0
   -1.4582    2.1199   -2.0248 H   0  0  0  0  0  0  0  0  0  0  0  0
   -3.0979   -3.0734   -0.3068 Cl  0  0  0  0  0  0  0  0  0  0  0  0
  2  3  3  0  0  0  0
  1  2  1  0  0  0  0
  5  6  1  0  0  0  0
  5  7  1  0  0  0  0
  5  8  1  0  0  0  0
  4  5  1  0  0  0  0
  1  4  1  0  0  0  0
 10  9  1  0  0  0  0
 11 10  2  0  0  0  0
 12 11  1  0  0  0  0
 13 12  1  0  0  0  0
 14 12  1  0  0  0  0
 15 12  1  0  0  0  0
 16 15  1  0  0  0  0
 17 15  1  0  0  0  0
 18 15  1  0  0  0  0
 18 21  1  0  0  0  0
 19 18  1  0  0  0  0
 20 18  1  0  0  0  0
 21 11  1  0  0  0  0
 21 22  2  0  0  0  0
 22  9  1  0  0  0  0
  1  9  1  0  0  0  0
 23 24  1  0  0  0  0
 23 25  1  0  0  0  0
 23 26  1  0  0  0  0
 23 27  1  0  0  0  0
 24 28  1  0  0  0  0
 24 29  1  0  0  0  0
  9 24  1  0  0  0  0
 30 41  1  0  0  0  0
 30 34  1  0  0  0  0
 30 35  1  0  0  0  0
 31 36  1  0  0  0  0
 31 42  1  0  0  0  0
 31 33  1  0  0  0  0
 31 35  1  0  0  0  0
 32 37  1  0  0  0  0
 32 43  1  0  0  0  0
 32 34  1  0  0  0  0
 32 33  1  0  0  0  0
 33 38  1  0  0  0  0
 33 44  1  0  0  0  0
 34 39  1  0  0  0  0
 34 45  1  0  0  0  0
 35 40  1  0  0  0  0
 35 46  1  0  0  0  0
 22 30  1  0  0  0  0
 47 58  1  0  0  0  0
 47 51  1  0  0  0  0
 47 52  1  0  0  0  0
 48 53  1  0  0  0  0
 48 59  1  0  0  0  0
 48 50  1  0  0  0  0
 48 52  1  0  0  0  0
 49 54  1  0  0  0  0
 49 60  1  0  0  0  0
 49 51  1  0  0  0  0
 49 50  1  0  0  0  0
 50 55  1  0  0  0  0
 50 61  1  0  0  0  0
 51 56  1  0  0  0  0
 51 62  1  0  0  0  0
 52 57  1  0  0  0  0
 52 63  1  0  0  0  0
 10 47  1  0  0  0  0
  1 64  1  0  0  0  0
M  END
> <PM6_ENERGY>
-515.813

> <UID>
BFIXREDYZVNIPW-TVGFNRPJNA-M

> <FITNESS>
1.14374

> <GCODE>
6416

> <GraphENC>
6416 72_1_0,80_65_1,114_54_1,88_67_1,126779_32_1,126947_35_1,126789_35_1, 72_0_80_0_SINGLE_Xlig:0_Xlig:1,72_2_114_1_SINGLE_scaff:0_MPhosphole:1,72_1_88_0_SINGLE_Xlig:0_Xlig:1,114_0_126779_0_SINGLE_LPhospholeSubR:0_SubRS:1,114_3_126947_0_SINGLE_LPhospholeSubAlpha:0_SubRM:1,114_2_126789_0_SINGLE_LPhospholeSubAlpha:0_SubRM:1, SymmetricSet [symIds=[126947, 126789]] 

> <GraphJson>
{
  "graphId": 6416,
  "gVertices": [
    {
      "lstAPs": [
        {
          "id": 166538,
          "atomPositionNumber": 0,
          "atomPositionNumberInMol": 0,
          "apClass": {
            "rule": "Xlig",
            "subClass": 0,
            "bndTyp": "SINGLE"
          },
          "dirVec": {
            "x": -2.3339,
            "y": -0.0087,
            "z": 0.8172
          }
        },
        {
          "id": 166539,
          "atomPositionNumber": 0,
          "atomPositionNumberInMol": 0,
          "apClass": {
            "rule": "Xlig",
            "subClass": 0,
            "bndTyp": "SINGLE"
          },
          "dirVec": {
            "x": 2.336,
            "y": -5.0E-4,
            "z": 0.829
          }
        },
        {
          "id": 166540,
          "atomPositionNumber": 0,
          "atomPositionNumberInMol": 0,
          "apClass": {
            "rule": "scaff",
            "subClass": 0,
            "bndTyp": "SINGLE"
          },
          "dirVec": {
            "x": -0.0095,
            "y": 0.0046,
            "z": -1.7113
          }
        }
      ],
      "lstSymAPs": [
        {
          "symIds": [
            0,
            1
          ]
        }
      ],
      "mol": {
        "atoms": [
          {
            "elSymbol": "Pt",
            "p3d": {
              "x": -0.0098,
              "y": 0.0049,
              "z": 0.6289
            }
          },
          {
            "elSymbol": "C",
            "p3d": {
              "x": -6.0E-4,
              "y": 0.0016,
              "z": 2.5609
            }
          },
          {
            "elSymbol": "O",
            "p3d": {
              "x": 0.0025,
              "y": -0.0041,
              "z": 3.6974
            }
          },
          {
            "elSymbol": "Du",
            "p3d": {
              "x": -0.007,
              "y": 1.0013,
              "z": 0.6372
            }
          },
          {
            "elSymbol": "Du",
            "p3d": {
              "x": -0.0014,
              "y": 0.9902,
              "z": 2.5698
            }
          }
        ],
        "bonds": [
          {
            "atomIds": [
              1,
              2
            ],
            "bo": "TRIPLE"
          },
          {
            "atomIds": [
              0,
              1
            ],
            "bo": "SINGLE"
          },
          {
            "atomIds": [
              3,
              0
            ],
            "bo": "SINGLE"
          },
          {
            "atomIds": [
              4,
              1
            ],
            "bo": "SINGLE"
          }
        ]
      },
      "vertexId": 72,
      "buildingBlockId": 0,
      "buildingBlockType": "SCAFFOLD",
      "isRCV": false,
      "properties": {
        "ATTACHMENT_POINTS": "1#Xlig:0:SINGLE:-2.3339%-0.0087%0.8172,Xlig:0:SINGLE:2.3360%-0.0005%0.8290,scaff:0:SINGLE:-0.0095%0.0046%-1.7113 "
      },
      "uniquefyingPropertyKeys": [],
      "allowedMutationTypes": [
        "DELETE",
        "EXTEND",
        "CHANGEBRANCH",
        "CHANGELINK",
        "ADDLINK",
        "DELETELINK",
        "DELETECHAIN"
      ],
      "vertexType": "MolecularFragment"
    },
    {
      "lstAPs": [
        {
          "id": 166541,
          "atomPositionNumber": 0,
          "atomPositionNumberInMol": 5,
          "apClass": {
            "rule": "Xlig",
            "subClass": 1,
            "bndTyp": "SINGLE"
          },
          "dirVec": {
            "x": -0.1753,
            "y": 0.0948,
            "z": -0.4464
          }
        }
      ],
      "lstSymAPs": [],
      "mol": {
        "atoms": [
          {
            "elSymbol": "O",
            "p3d": {
              "x": -0.3534,
              "y": 2.1044,
              "z": -0.7339
            }
          },
          {
            "elSymbol": "C",
            "p3d": {
              "x": -0.5345,
              "y": 2.7646,
              "z": 0.4801
            }
          },
          {
            "elSymbol": "H",
            "p3d": {
              "x": -0.3728,
              "y": 3.8337,
              "z": 0.2724
            }
          },
          {
            "elSymbol": "H",
            "p3d": {
              "x": 0.1816,
              "y": 2.4161,
              "z": 1.2384
            }
          },
          {
            "elSymbol": "H",
            "p3d": {
              "x": -1.553,
              "y": 2.6149,
              "z": 0.8489
            }
          }
        ],
        "bonds": [
          {
            "atomIds": [
              1,
              2
            ],
            "bo": "SINGLE"
          },
          {
            "atomIds": [
              1,
              3
            ],
            "bo": "SINGLE"
          },
          {
            "atomIds": [
              1,
              4
            ],
            "bo": "SINGLE"
          },
          {
            "atomIds": [
              0,
              1
            ],
            "bo": "SINGLE"
          }
        ]
      },
      "vertexId": 80,
      "buildingBlockId": 64,
      "buildingBlockType": "FRAGMENT",
      "isRCV": false,
      "properties": {
        "ATTACHMENT_POINTS": "1#Xlig:1:SINGLE:-0.1753%0.0948%-0.4464 "
      },
      "uniquefyingPropertyKeys": [],
      "allowedMutationTypes": [
        "DELETE",
        "EXTEND",
        "CHANGEBRANCH",
        "CHANGELINK",
        "ADDLINK",
        "DELETELINK",
        "DELETECHAIN"
      ],
      "vertexType": "MolecularFragment"
    },
    {
      "lstAPs": [
        {
          "id": 166542,
          "atomPositionNumber": 0,
          "atomPositionNumberInMol": 10,
          "apClass": {
            "rule": "LPhospholeSubR",
            "subClass": 0,
            "bndTyp": "SINGLE"
          },
          "dirVec": {
            "x": 2.845,
            "y": 3.6959,
            "z": 7.5989
          }
        },
        {
          "id": 166543,
          "atomPositionNumber": 0,
          "atomPositionNumberInMol": 10,
          "apClass": {
            "rule": "MPhosphole",
            "subClass": 1,
            "bndTyp": "SINGLE"
          },
          "dirVec": {
            "x": 5.4116,
            "y": 3.8914,
            "z": 5.1007
          }
        },
        {
          "id": 166544,
          "atomPositionNumber": 1,
          "atomPositionNumberInMol": 11,
          "apClass": {
            "rule": "LPhospholeSubAlpha",
            "subClass": 0,
            "bndTyp": "SINGLE"
          },
          "dirVec": {
            "x": 1.4479,
            "y": 4.7532,
            "z": 4.2328
          }
        },
        {
          "id": 166545,
          "atomPositionNumber": 13,
          "atomPositionNumberInMol": 23,
          "apClass": {
            "rule": "LPhospholeSubAlpha",
            "subClass": 0,
            "bndTyp": "SINGLE"
          },
          "dirVec": {
            "x": 3.9785,
            "y": 0.2873,
            "z": 6.6145
          }
        }
      ],
      "lstSymAPs": [
        {
          "symIds": [
            2,
            3
          ]
        }
      ],
      "mol": {
        "atoms": [
          {
            "elSymbol": "P",
            "p3d": {
              "x": 3.3327,
              "y": 3.1661,
              "z": 5.9169
            }
          },
          {
            "elSymbol": "C",
            "p3d": {
              "x": 1.8776,
              "y": 3.4521,
              "z": 4.8835
            }
          },
          {
            "elSymbol": "C",
            "p3d": {
              "x": 1.2681,
              "y": 2.2569,
              "z": 4.7213
            }
          },
          {
            "elSymbol": "C",
            "p3d": {
              "x": 0.0419,
              "y": 1.8038,
              "z": 3.9627
            }
          },
          {
            "elSymbol": "H",
            "p3d": {
              "x": 0.2288,
              "y": 1.7787,
              "z": 2.8891
            }
          },
          {
            "elSymbol": "H",
            "p3d": {
              "x": -0.8031,
              "y": 2.4636,
              "z": 4.164
            }
          },
          {
            "elSymbol": "C",
            "p3d": {
              "x": -0.2053,
              "y": 0.3988,
              "z": 4.5209
            }
          },
          {
            "elSymbol": "H",
            "p3d": {
              "x": -0.5881,
              "y": -0.2518,
              "z": 3.7305
            }
          },
          {
            "elSymbol": "H",
            "p3d": {
              "x": -0.9454,
              "y": 0.4356,
              "z": 5.3348
            }
          },
          {
            "elSymbol": "C",
            "p3d": {
              "x": 1.1426,
              "y": -0.1318,
              "z": 5.057
            }
          },
          {
            "elSymbol": "H",
            "p3d": {
              "x": 0.9989,
              "y": -0.7298,
              "z": 5.9471
            }
          },
          {
            "elSymbol": "H",
            "p3d": {
              "x": 1.6318,
              "y": -0.7488,
              "z": 4.3049
            }
          },
          {
            "elSymbol": "C",
            "p3d": {
              "x": 1.9182,
              "y": 1.1071,
              "z": 5.3354
            }
          },
          {
            "elSymbol": "C",
            "p3d": {
              "x": 3.0763,
              "y": 1.3393,
              "z": 5.9864
            }
          }
        ],
        "bonds": [
          {
            "atomIds": [
              1,
              0
            ],
            "bo": "SINGLE"
          },
          {
            "atomIds": [
              2,
              1
            ],
            "bo": "DOUBLE"
          },
          {
            "atomIds": [
              3,
              2
            ],
            "bo": "SINGLE"
          },
          {
            "atomIds": [
              4,
              3
            ],
            "bo": "SINGLE"
          },
          {
            "atomIds": [
              5,
              3
            ],
            "bo": "SINGLE"
          },
          {
            "atomIds": [
              6,
              3
            ],
            "bo": "SINGLE"
          },
          {
            "atomIds": [
              7,
              6
            ],
            "bo": "SINGLE"
          },
          {
            "atomIds": [
              8,
              6
            ],
            "bo": "SINGLE"
          },
          {
            "atomIds": [
              9,
              6
            ],
            "bo": "SINGLE"
          },
          {
            "atomIds": [
              9,
              12
            ],
            "bo": "SINGLE"
          },
          {
            "atomIds": [
              10,
              9
            ],
            "bo": "SINGLE"
          },
          {
            "atomIds": [
              11,
              9
            ],
            "bo": "SINGLE"
          },
          {
            "atomIds": [
              12,
              2
            ],
            "bo": "SINGLE"
          },
          {
            "atomIds": [
              12,
              13
            ],
            "bo": "DOUBLE"
          },
          {
            "atomIds": [
              13,
              0
            ],
            "bo": "SINGLE"
          }
        ]
      },
      "vertexId": 114,
      "buildingBlockId": 53,
      "buildingBlockType": "FRAGMENT",
      "isRCV": false,
      "properties": {
        "ATTACHMENT_POINTS": "1#LPhospholeSubR:0:SINGLE:2.8450%3.6959%7.5989,MPhosphole:1:SINGLE:5.4116%3.8914%5.1007 2#LPhospholeSubAlpha:0:SINGLE:1.4479%4.7532%4.2328 14#LPhospholeSubAlpha:0:SINGLE:3.9785%0.2873%6.6145 "
      },
      "uniquefyingPropertyKeys": [],
      "allowedMutationTypes": [
        "DELETE",
        "EXTEND",
        "CHANGEBRANCH",
        "CHANGELINK",
        "ADDLINK",
        "DELETELINK",
        "DELETECHAIN"
      ],
      "vertexType": "MolecularFragment"
    },
    {
      "lstAPs": [
        {
          "id": 166546,
          "atomPositionNumber": 0,
          "atomPositionNumberInMol": 65,
          "apClass": {
            "rule": "Xlig",
            "subClass": 1,
            "bndTyp": "SINGLE"
          },
          "dirVec": {
            "x": -0.0053,
            "y": -0.0027,
            "z": 0.63
          }
        }
      ],
      "lstSymAPs": [],
      "mol": {
        "atoms": [
          {
            "elSymbol": "Cl",
            "p3d": {
              "x": 2.3243,
              "y": -0.0063,
              "z": 0.8189
            }
          }
        ],
        "bonds": []
      },
      "vertexId": 88,
      "buildingBlockId": 66,
      "buildingBlockType": "FRAGMENT",
      "isRCV": false,
      "properties": {
        "ATTACHMENT_POINTS": "1#Xlig:1:SINGLE:-0.0053%-0.0027%0.6300 "
      },
      "uniquefyingPropertyKeys": [],
      "allowedMutationTypes": [
        "DELETE",
        "EXTEND",
        "CHANGEBRANCH",
        "CHANGELINK",
        "ADDLINK",
        "DELETELINK",
        "DELETECHAIN"
      ],
      "vertexType": "MolecularFragment"
    },
    {
      "lstAPs": [
        {
          "id": 166583,
          "atomPositionNumber": 1,
          "atomPositionNumberInMol": 25,
          "apClass": {
            "rule": "SubRS",
            "subClass": 1,
            "bndTyp": "SINGLE"
          },
          "dirVec": {
            "x": 0.2985,
            "y": 0.384,
            "z": -0.6258
          }
        }
      ],
      "lstSymAPs": [],
      "mol": {
        "atoms": [
          {
            "elSymbol": "C",
            "p3d": {
              "x": -1.0244,
              "y": -0.2225,
              "z": 1.3991
            }
          },
          {
            "elSymbol": "C",
            "p3d": {
              "x": 0.3973,
              "y": -0.042,
              "z": 0.8195
            }
          },
          {
            "elSymbol": "H",
            "p3d": {
              "x": -1.5635,
              "y": -0.9908,
              "z": 0.8263
            }
          },
          {
            "elSymbol": "H",
            "p3d": {
              "x": -0.941,
              "y": -0.535,
              "z": 2.446
            }
          },
          {
            "elSymbol": "H",
            "p3d": {
              "x": -1.5586,
              "y": 0.7335,
              "z": 1.3382
            }
          },
          {
            "elSymbol": "H",
            "p3d": {
              "x": 0.9335,
              "y": 0.7221,
              "z": 1.4011
            }
          },
          {
            "elSymbol": "H",
            "p3d": {
              "x": 0.927,
              "y": -1.0102,
              "z": 0.9001
            }
          }
        ],
        "bonds": [
          {
            "atomIds": [
              0,
              1
            ],
            "bo": "SINGLE"
          },
          {
            "atomIds": [
              0,
              2
            ],
            "bo": "SINGLE"
          },
          {
            "atomIds": [
              0,
              3
            ],
            "bo": "SINGLE"
          },
          {
            "atomIds": [
              0,
              4
            ],
            "bo": "SINGLE"
          },
          {
            "atomIds": [
              1,
              5
            ],
            "bo": "SINGLE"
          },
          {
            "atomIds": [
              1,
              6
            ],
            "bo": "SINGLE"
          }
        ]
      },
      "vertexId": 126779,
      "buildingBlockId": 31,
      "buildingBlockType": "FRAGMENT",
      "isRCV": false,
      "properties": {
        "ATTACHMENT_POINTS": "2#SubRS:1:SINGLE:0.2985%0.3840%-0.6258 "
      },
      "uniquefyingPropertyKeys": [],
      "allowedMutationTypes": [
        "DELETE",
        "EXTEND",
        "CHANGEBRANCH",
        "CHANGELINK",
        "ADDLINK",
        "DELETELINK",
        "DELETECHAIN"
      ],
      "vertexType": "MolecularFragment"
    },
    {
      "lstAPs": [
        {
          "id": 166584,
          "atomPositionNumber": 0,
          "atomPositionNumberInMol": 31,
          "apClass": {
            "rule": "SubRM",
            "subClass": 1,
            "bndTyp": "SINGLE"
          },
          "dirVec": {
            "x": 0.2917,
            "y": 0.3929,
            "z": -0.6365
          }
        }
      ],
      "lstSymAPs": [],
      "mol": {
        "atoms": [
          {
            "elSymbol": "C",
            "p3d": {
              "x": 1.7002,
              "y": 0.56,
              "z": -1.2045
            }
          },
          {
            "elSymbol": "C",
            "p3d": {
              "x": 3.564,
              "y": -0.7339,
              "z": -2.2652
            }
          },
          {
            "elSymbol": "C",
            "p3d": {
              "x": 2.9237,
              "y": 1.5034,
              "z": -3.1926
            }
          },
          {
            "elSymbol": "C",
            "p3d": {
              "x": 3.4145,
              "y": 0.0994,
              "z": -3.5498
            }
          },
          {
            "elSymbol": "C",
            "p3d": {
              "x": 1.5576,
              "y": 1.3879,
              "z": -2.5024
            }
          },
          {
            "elSymbol": "C",
            "p3d": {
              "x": 2.203,
              "y": -0.843,
              "z": -1.5702
            }
          },
          {
            "elSymbol": "H",
            "p3d": {
              "x": 4.3384,
              "y": -0.3241,
              "z": -1.6106
            }
          },
          {
            "elSymbol": "H",
            "p3d": {
              "x": 3.6361,
              "y": 2.0524,
              "z": -2.5991
            }
          },
          {
            "elSymbol": "H",
            "p3d": {
              "x": 2.7828,
              "y": -0.3911,
              "z": -4.2916
            }
          },
          {
            "elSymbol": "H",
            "p3d": {
              "x": 0.7737,
              "y": 0.9833,
              "z": -3.15
            }
          },
          {
            "elSymbol": "H",
            "p3d": {
              "x": 1.4815,
              "y": -1.3988,
              "z": -2.1783
            }
          },
          {
            "elSymbol": "H",
            "p3d": {
              "x": 2.3445,
              "y": 1.0609,
              "z": -0.4835
            }
          },
          {
            "elSymbol": "H",
            "p3d": {
              "x": 3.8429,
              "y": -1.7623,
              "z": -2.577
            }
          },
          {
            "elSymbol": "H",
            "p3d": {
              "x": 2.7428,
              "y": 2.0124,
              "z": -4.146
            }
          },
          {
            "elSymbol": "H",
            "p3d": {
              "x": 4.4291,
              "y": 0.2183,
              "z": -3.9628
            }
          },
          {
            "elSymbol": "H",
            "p3d": {
              "x": 1.2819,
              "y": 2.4034,
              "z": -2.1821
            }
          },
          {
            "elSymbol": "H",
            "p3d": {
              "x": 2.3734,
              "y": -1.3662,
              "z": -0.6149
            }
          }
        ],
        "bonds": [
          {
            "atomIds": [
              0,
              11
            ],
            "bo": "SINGLE"
          },
          {
            "atomIds": [
              0,
              4
            ],
            "bo": "SINGLE"
          },
          {
            "atomIds": [
              0,
              5
            ],
            "bo": "SINGLE"
          },
          {
            "atomIds": [
              1,
              6
            ],
            "bo": "SINGLE"
          },
          {
            "atomIds": [
              1,
              12
            ],
            "bo": "SINGLE"
          },
          {
            "atomIds": [
              1,
              3
            ],
            "bo": "SINGLE"
          },
          {
            "atomIds": [
              1,
              5
            ],
            "bo": "SINGLE"
          },
          {
            "atomIds": [
              2,
              7
            ],
            "bo": "SINGLE"
          },
          {
            "atomIds": [
              2,
              13
            ],
            "bo": "SINGLE"
          },
          {
            "atomIds": [
              2,
              4
            ],
            "bo": "SINGLE"
          },
          {
            "atomIds": [
              2,
              3
            ],
            "bo": "SINGLE"
          },
          {
            "atomIds": [
              3,
              8
            ],
            "bo": "SINGLE"
          },
          {
            "atomIds": [
              3,
              14
            ],
            "bo": "SINGLE"
          },
          {
            "atomIds": [
              4,
              9
            ],
            "bo": "SINGLE"
          },
          {
            "atomIds": [
              4,
              15
            ],
            "bo": "SINGLE"
          },
          {
            "atomIds": [
              5,
              10
            ],
            "bo": "SINGLE"
          },
          {
            "atomIds": [
              5,
              16
            ],
            "bo": "SINGLE"
          }
        ]
      },
      "vertexId": 126947,
      "buildingBlockId": 34,
      "buildingBlockType": "FRAGMENT",
      "isRCV": false,
      "properties": {
        "ATTACHMENT_POINTS": "1#SubRM:1:SINGLE:0.2917%0.3929%-0.6365 "
      },
      "uniquefyingPropertyKeys": [],
      "allowedMutationTypes": [
        "DELETE",
        "EXTEND",
        "CHANGEBRANCH",
        "CHANGELINK",
        "ADDLINK",
        "DELETELINK",
        "DELETECHAIN"
      ],
      "vertexType": "MolecularFragment"
    },
    {
      "lstAPs": [
        {
          "id": 166585,
          "atomPositionNumber": 0,
          "atomPositionNumberInMol": 48,
          "apClass": {
            "rule": "SubRM",
            "subClass": 1,
            "bndTyp": "SINGLE"
          },
          "dirVec": {
            "x": 0.2917,
            "y": 0.3929,
            "z": -0.6365
          }
        }
      ],
      "lstSymAPs": [],
      "mol": {
        "atoms": [
          {
            "elSymbol": "C",
            "p3d": {
              "x": 1.7002,
              "y": 0.56,
              "z": -1.2045
            }
          },
          {
            "elSymbol": "C",
            "p3d": {
              "x": 3.564,
              "y": -0.7339,
              "z": -2.2652
            }
          },
          {
            "elSymbol": "C",
            "p3d": {
              "x": 2.9237,
              "y": 1.5034,
              "z": -3.1926
            }
          },
          {
            "elSymbol": "C",
            "p3d": {
              "x": 3.4145,
              "y": 0.0994,
              "z": -3.5498
            }
          },
          {
            "elSymbol": "C",
            "p3d": {
              "x": 1.5576,
              "y": 1.3879,
              "z": -2.5024
            }
          },
          {
            "elSymbol": "C",
            "p3d": {
              "x": 2.203,
              "y": -0.843,
              "z": -1.5702
            }
          },
          {
            "elSymbol": "H",
            "p3d": {
              "x": 4.3384,
              "y": -0.3241,
              "z": -1.6106
            }
          },
          {
            "elSymbol": "H",
            "p3d": {
              "x": 3.6361,
              "y": 2.0524,
              "z": -2.5991
            }
          },
          {
            "elSymbol": "H",
            "p3d": {
              "x": 2.7828,
              "y": -0.3911,
              "z": -4.2916
            }
          },
          {
            "elSymbol": "H",
            "p3d": {
              "x": 0.7737,
              "y": 0.9833,
              "z": -3.15
            }
          },
          {
            "elSymbol": "H",
            "p3d": {
              "x": 1.4815,
              "y": -1.3988,
              "z": -2.1783
            }
          },
          {
            "elSymbol": "H",
            "p3d": {
              "x": 2.3445,
              "y": 1.0609,
              "z": -0.4835
            }
          },
          {
            "elSymbol": "H",
            "p3d": {
              "x": 3.8429,
              "y": -1.7623,
              "z": -2.577
            }
          },
          {
            "elSymbol": "H",
            "p3d": {
              "x": 2.7428,
              "y": 2.0124,
              "z": -4.146
            }
          },
          {
            "elSymbol": "H",
            "p3d": {
              "x": 4.4291,
              "y": 0.2183,
              "z": -3.9628
            }
          },
          {
            "elSymbol": "H",
            "p3d": {
              "x": 1.2819,
              "y": 2.4034,
              "z": -2.1821
            }
          },
          {
            "elSymbol": "H",
            "p3d": {
              "x": 2.3734,
              "y": -1.3662,
              "z": -0.6149
            }
          }
        ],
        "bonds": [
          {
            "atomIds": [
              0,
              11
            ],
            "bo": "SINGLE"
          },
          {
            "atomIds": [
              0,
              4
            ],
            "bo": "SINGLE"
          },
          {
            "atomIds": [
              0,
              5
            ],
            "bo": "SINGLE"
          },
          {
            "atomIds": [
              1,
              6
            ],
            "bo": "SINGLE"
          },
          {
            "atomIds": [
              1,
              12
            ],
            "bo": "SINGLE"
          },
          {
            "atomIds": [
              1,
              3
            ],
            "bo": "SINGLE"
          },
          {
            "atomIds": [
              1,
              5
            ],
            "bo": "SINGLE"
          },
          {
            "atomIds": [
              2,
              7
            ],
            "bo": "SINGLE"
          },
          {
            "atomIds": [
              2,
              13
            ],
            "bo": "SINGLE"
          },
          {
            "atomIds": [
              2,
              4
            ],
            "bo": "SINGLE"
          },
          {
            "atomIds": [
              2,
              3
            ],
            "bo": "SINGLE"
          },
          {
            "atomIds": [
              3,
              8
            ],
            "bo": "SINGLE"
          },
          {
            "atomIds": [
              3,
              14
            ],
            "bo": "SINGLE"
          },
          {
            "atomIds": [
              4,
              9
            ],
            "bo": "SINGLE"
          },
          {
            "atomIds": [
              4,
              15
            ],
            "bo": "SINGLE"
          },
          {
            "atomIds": [
              5,
              10
            ],
            "bo": "SINGLE"
          },
          {
            "atomIds": [
              5,
              16
            ],
            "bo": "SINGLE"
          }
        ]
      },
      "vertexId": 126789,
      "buildingBlockId": 34,
      "buildingBlockType": "FRAGMENT",
      "isRCV": false,
      "properties": {
        "ATTACHMENT_POINTS": "1#SubRM:1:SINGLE:0.2917%0.3929%-0.6365 "
      },
      "uniquefyingPropertyKeys": [],
      "allowedMutationTypes": [
        "DELETE",
        "EXTEND",
        "CHANGEBRANCH",
        "CHANGELINK",
        "ADDLINK",
        "DELETELINK",
        "DELETECHAIN"
      ],
      "vertexType": "MolecularFragment"
    }
  ],
  "gEdges": [
    {
      "srcAPID": 166538,
      "trgAPID": 166541,
      "bondType": "SINGLE"
    },
    {
      "srcAPID": 166540,
      "trgAPID": 166543,
      "bondType": "SINGLE"
    },
    {
      "srcAPID": 166539,
      "trgAPID": 166546,
      "bondType": "SINGLE"
    },
    {
      "srcAPID": 166542,
      "trgAPID": 166583,
      "bondType": "SINGLE"
    },
    {
      "srcAPID": 166545,
      "trgAPID": 166584,
      "bondType": "SINGLE"
    },
    {
      "srcAPID": 166544,
      "trgAPID": 166585,
      "bondType": "SINGLE"
    }
  ],
  "gRings": [],
  "symVertices": [
    {
      "symIds": [
        126947,
        126789
      ]
    }
  ]
}

> <SMILES>
[Pt](C#O)(OC([H])([H])[H])([P]1(C(=C2C([H])([H])C([H])([H])C(C2=C1C3([H])C(C([H])([H])C(C([H])([H])C3([H])[H])([H])[H])([H])[H])([H])[H])C4([H])C(C([H])([H])C(C([H])([H])C4([H])[H])([H])[H])([H])[H])C(C([H])([H])[H])([H])[H])Cl

$$$$
