M00003345
  CDK     04222209533D

 45 46  0  0  0  0  0  0  0  0999 V2000
   -2.0666    0.3176    0.0530 Pt  0  0  0  0  0  0  0  0  0  0  0  0
   -3.9531    0.3465   -0.3372 C   0  0  0  0  0  0  0  0  0  0  0  0
   -5.0733    0.3274   -0.5791 O   0  0  0  0  0  0  0  0  0  0  0  0
   -2.1784    2.3589   -0.0363 O   0  0  0  0  0  0  0  0  0  0  0  0
   -2.4651    2.8682    1.2479 C   0  0  0  0  0  0  0  0  0  0  0  0
   -2.5843    3.9530    1.1145 H   0  0  0  0  0  0  0  0  0  0  0  0
   -1.6340    2.6589    1.9336 H   0  0  0  0  0  0  0  0  0  0  0  0
   -3.3963    2.4304    1.6294 H   0  0  0  0  0  0  0  0  0  0  0  0
    0.1695    0.0928    0.4015 P   0  0  0  0  0  0  0  0  0  0  0  0
    1.0936    1.6795    0.8267 C   0  0  0  0  0  0  0  0  0  0  0  0
    1.7720    1.4329    1.9583 C   0  0  0  0  0  0  0  0  0  0  0  0
    1.6540    0.0748    2.5311 C   0  0  0  0  0  0  0  0  0  0  0  0
    0.8709   -0.8094    1.8889 C   0  0  0  0  0  0  0  0  0  0  0  0
    2.3899    2.1602    2.4768 H   0  0  0  0  0  0  0  0  0  0  0  0
    2.1987   -0.1467    3.4453 H   0  0  0  0  0  0  0  0  0  0  0  0
    1.8701    2.8690   -1.2254 C   0  0  0  0  0  0  0  0  0  0  0  0
    0.9749    2.9106    0.0137 C   0  0  0  0  0  0  0  0  0  0  0  0
    1.5516    2.0990   -1.9388 H   0  0  0  0  0  0  0  0  0  0  0  0
    1.8416    3.8286   -1.7553 H   0  0  0  0  0  0  0  0  0  0  0  0
    2.9142    2.6639   -0.9639 H   0  0  0  0  0  0  0  0  0  0  0  0
    1.2356    3.7986    0.6298 H   0  0  0  0  0  0  0  0  0  0  0  0
   -0.0943    3.0793   -0.2929 H   0  0  0  0  0  0  0  0  0  0  0  0
   -0.7844   -2.3096    2.9789 C   0  0  0  0  0  0  0  0  0  0  0  0
    0.5514   -2.2143    2.2370 C   0  0  0  0  0  0  0  0  0  0  0  0
   -0.8365   -1.6189    3.8254 H   0  0  0  0  0  0  0  0  0  0  0  0
   -1.6219   -2.0751    2.2948 H   0  0  0  0  0  0  0  0  0  0  0  0
   -0.9533   -3.3231    3.3559 H   0  0  0  0  0  0  0  0  0  0  0  0
    1.3622   -2.6430    2.8641 H   0  0  0  0  0  0  0  0  0  0  0  0
    0.5001   -2.8534    1.3248 H   0  0  0  0  0  0  0  0  0  0  0  0
    0.8923   -0.5522   -1.1702 C   0  0  0  0  0  0  0  0  0  0  0  0
    1.8815   -1.4436   -3.6045 C   0  0  0  0  0  0  0  0  0  0  0  0
    0.1327   -0.3528   -2.3265 C   0  0  0  0  0  0  0  0  0  0  0  0
    2.1292   -1.1945   -1.2042 C   0  0  0  0  0  0  0  0  0  0  0  0
    2.6238   -1.6421   -2.4355 C   0  0  0  0  0  0  0  0  0  0  0  0
    0.6397   -0.8016   -3.5520 C   0  0  0  0  0  0  0  0  0  0  0  0
   -0.8492    0.1419   -2.2970 H   0  0  0  0  0  0  0  0  0  0  0  0
    2.7202   -1.3597   -0.3016 H   0  0  0  0  0  0  0  0  0  0  0  0
    3.5876   -2.1465   -2.4822 H   0  0  0  0  0  0  0  0  0  0  0  0
    0.0645   -0.6522   -4.4648 H   0  0  0  0  0  0  0  0  0  0  0  0
    2.2717   -1.7926   -4.5606 H   0  0  0  0  0  0  0  0  0  0  0  0
   -1.6098   -1.6679    0.1654 O   0  0  0  0  0  0  0  0  0  0  0  0
   -2.3246   -2.4630   -0.7529 C   0  0  0  0  0  0  0  0  0  0  0  0
   -1.9122   -3.4768   -0.6513 H   0  0  0  0  0  0  0  0  0  0  0  0
   -2.1666   -2.0918   -1.7729 H   0  0  0  0  0  0  0  0  0  0  0  0
   -3.3896   -2.4612   -0.4917 H   0  0  0  0  0  0  0  0  0  0  0  0
  2  3  3  0  0  0  0
  1  2  1  0  0  0  0
  5  6  1  0  0  0  0
  5  7  1  0  0  0  0
  5  8  1  0  0  0  0
  4  5  1  0  0  0  0
  1  4  1  0  0  0  0
 10  9  1  0  0  0  0
 11 10  2  0  0  0  0
 12 11  1  0  0  0  0
 12 13  2  0  0  0  0
 13  9  1  0  0  0  0
 11 14  1  0  0  0  0
 12 15  1  0  0  0  0
  1  9  1  0  0  0  0
 16 17  1  0  0  0  0
 16 18  1  0  0  0  0
 16 19  1  0  0  0  0
 16 20  1  0  0  0  0
 17 21  1  0  0  0  0
 17 22  1  0  0  0  0
 10 17  1  0  0  0  0
 23 24  1  0  0  0  0
 23 25  1  0  0  0  0
 23 26  1  0  0  0  0
 23 27  1  0  0  0  0
 24 28  1  0  0  0  0
 24 29  1  0  0  0  0
 13 24  1  0  0  0  0
 30 33  1  0  0  0  0
 33 34  2  0  0  0  0
 31 34  1  0  0  0  0
 31 35  2  0  0  0  0
 32 35  1  0  0  0  0
 30 32  2  0  0  0  0
 34 38  1  0  0  0  0
 35 39  1  0  0  0  0
 31 40  1  0  0  0  0
 32 36  1  0  0  0  0
 33 37  1  0  0  0  0
  9 30  1  0  0  0  0
 42 43  1  0  0  0  0
 42 44  1  0  0  0  0
 42 45  1  0  0  0  0
 41 42  1  0  0  0  0
  1 41  1  0  0  0  0
M  END
> <PM6_ENERGY>
-235.577

> <UID>
WGOAFZHGEJEHLZ-YDQAAODANA-N

> <FITNESS>
1.14618

> <GCODE>
4050

> <GraphENC>
4050 72_1_0,80_65_1,115_55_1,86_65_1,77192_32_1,77647_32_1,77187_36_1, 72_0_80_0_SINGLE_Xlig:0_Xlig:1,72_2_115_1_SINGLE_scaff:0_MPhosphole:1,72_1_86_0_SINGLE_Xlig:0_Xlig:1,115_2_77192_0_SINGLE_LPhospholeSubAlpha:0_SubRS:1,115_3_77647_0_SINGLE_LPhospholeSubAlpha:0_SubRS:1,115_0_77187_0_SINGLE_LPhospholeSubR:0_SubArS:1, SymmetricSet [symIds=[77192, 77647]] 

> <GraphJson>
{
  "graphId": 4050,
  "gVertices": [
    {
      "lstAPs": [
        {
          "id": 102601,
          "atomPositionNumber": 0,
          "atomPositionNumberInMol": 0,
          "apClass": {
            "rule": "Xlig",
            "subClass": 0,
            "bndTyp": "SINGLE"
          },
          "dirVec": {
            "x": -2.3339,
            "y": -0.0087,
            "z": 0.8172
          }
        },
        {
          "id": 102602,
          "atomPositionNumber": 0,
          "atomPositionNumberInMol": 0,
          "apClass": {
            "rule": "Xlig",
            "subClass": 0,
            "bndTyp": "SINGLE"
          },
          "dirVec": {
            "x": 2.336,
            "y": -5.0E-4,
            "z": 0.829
          }
        },
        {
          "id": 102603,
          "atomPositionNumber": 0,
          "atomPositionNumberInMol": 0,
          "apClass": {
            "rule": "scaff",
            "subClass": 0,
            "bndTyp": "SINGLE"
          },
          "dirVec": {
            "x": -0.0095,
            "y": 0.0046,
            "z": -1.7113
          }
        }
      ],
      "lstSymAPs": [
        {
          "symIds": [
            0,
            1
          ]
        }
      ],
      "mol": {
        "atoms": [
          {
            "elSymbol": "Pt",
            "p3d": {
              "x": -0.0098,
              "y": 0.0049,
              "z": 0.6289
            }
          },
          {
            "elSymbol": "C",
            "p3d": {
              "x": -6.0E-4,
              "y": 0.0016,
              "z": 2.5609
            }
          },
          {
            "elSymbol": "O",
            "p3d": {
              "x": 0.0025,
              "y": -0.0041,
              "z": 3.6974
            }
          },
          {
            "elSymbol": "Du",
            "p3d": {
              "x": -0.007,
              "y": 1.0013,
              "z": 0.6372
            }
          },
          {
            "elSymbol": "Du",
            "p3d": {
              "x": -0.0014,
              "y": 0.9902,
              "z": 2.5698
            }
          }
        ],
        "bonds": [
          {
            "atomIds": [
              1,
              2
            ],
            "bo": "TRIPLE"
          },
          {
            "atomIds": [
              0,
              1
            ],
            "bo": "SINGLE"
          },
          {
            "atomIds": [
              3,
              0
            ],
            "bo": "SINGLE"
          },
          {
            "atomIds": [
              4,
              1
            ],
            "bo": "SINGLE"
          }
        ]
      },
      "vertexId": 72,
      "buildingBlockId": 0,
      "buildingBlockType": "SCAFFOLD",
      "isRCV": false,
      "properties": {
        "ATTACHMENT_POINTS": "1#Xlig:0:SINGLE:-2.3339%-0.0087%0.8172,Xlig:0:SINGLE:2.3360%-0.0005%0.8290,scaff:0:SINGLE:-0.0095%0.0046%-1.7113 "
      },
      "uniquefyingPropertyKeys": [],
      "allowedMutationTypes": [
        "DELETE",
        "EXTEND",
        "CHANGEBRANCH",
        "CHANGELINK",
        "ADDLINK",
        "DELETELINK",
        "DELETECHAIN"
      ],
      "vertexType": "MolecularFragment"
    },
    {
      "lstAPs": [
        {
          "id": 102604,
          "atomPositionNumber": 0,
          "atomPositionNumberInMol": 5,
          "apClass": {
            "rule": "Xlig",
            "subClass": 1,
            "bndTyp": "SINGLE"
          },
          "dirVec": {
            "x": -0.1753,
            "y": 0.0948,
            "z": -0.4464
          }
        }
      ],
      "lstSymAPs": [],
      "mol": {
        "atoms": [
          {
            "elSymbol": "O",
            "p3d": {
              "x": -0.3534,
              "y": 2.1044,
              "z": -0.7339
            }
          },
          {
            "elSymbol": "C",
            "p3d": {
              "x": -0.5345,
              "y": 2.7646,
              "z": 0.4801
            }
          },
          {
            "elSymbol": "H",
            "p3d": {
              "x": -0.3728,
              "y": 3.8337,
              "z": 0.2724
            }
          },
          {
            "elSymbol": "H",
            "p3d": {
              "x": 0.1816,
              "y": 2.4161,
              "z": 1.2384
            }
          },
          {
            "elSymbol": "H",
            "p3d": {
              "x": -1.553,
              "y": 2.6149,
              "z": 0.8489
            }
          }
        ],
        "bonds": [
          {
            "atomIds": [
              1,
              2
            ],
            "bo": "SINGLE"
          },
          {
            "atomIds": [
              1,
              3
            ],
            "bo": "SINGLE"
          },
          {
            "atomIds": [
              1,
              4
            ],
            "bo": "SINGLE"
          },
          {
            "atomIds": [
              0,
              1
            ],
            "bo": "SINGLE"
          }
        ]
      },
      "vertexId": 80,
      "buildingBlockId": 64,
      "buildingBlockType": "FRAGMENT",
      "isRCV": false,
      "properties": {
        "ATTACHMENT_POINTS": "1#Xlig:1:SINGLE:-0.1753%0.0948%-0.4464 "
      },
      "uniquefyingPropertyKeys": [],
      "allowedMutationTypes": [
        "DELETE",
        "EXTEND",
        "CHANGEBRANCH",
        "CHANGELINK",
        "ADDLINK",
        "DELETELINK",
        "DELETECHAIN"
      ],
      "vertexType": "MolecularFragment"
    },
    {
      "lstAPs": [
        {
          "id": 102605,
          "atomPositionNumber": 0,
          "atomPositionNumberInMol": 10,
          "apClass": {
            "rule": "LPhospholeSubR",
            "subClass": 0,
            "bndTyp": "SINGLE"
          },
          "dirVec": {
            "x": 4.21,
            "y": -5.7776,
            "z": -2.4063
          }
        },
        {
          "id": 102606,
          "atomPositionNumber": 0,
          "atomPositionNumberInMol": 10,
          "apClass": {
            "rule": "MPhosphole",
            "subClass": 1,
            "bndTyp": "SINGLE"
          },
          "dirVec": {
            "x": 1.5693,
            "y": -5.3781,
            "z": -4.7398
          }
        },
        {
          "id": 102607,
          "atomPositionNumber": 1,
          "atomPositionNumberInMol": 11,
          "apClass": {
            "rule": "LPhospholeSubAlpha",
            "subClass": 0,
            "bndTyp": "SINGLE"
          },
          "dirVec": {
            "x": 4.3472,
            "y": -8.5987,
            "z": -4.7607
          }
        },
        {
          "id": 102608,
          "atomPositionNumber": 4,
          "atomPositionNumberInMol": 14,
          "apClass": {
            "rule": "LPhospholeSubAlpha",
            "subClass": 0,
            "bndTyp": "SINGLE"
          },
          "dirVec": {
            "x": 4.7612,
            "y": -2.979,
            "z": -4.8399
          }
        }
      ],
      "lstSymAPs": [
        {
          "symIds": [
            2,
            3
          ]
        }
      ],
      "mol": {
        "atoms": [
          {
            "elSymbol": "P",
            "p3d": {
              "x": 3.7869,
              "y": -5.7373,
              "z": -4.1775
            }
          },
          {
            "elSymbol": "C",
            "p3d": {
              "x": 4.6962,
              "y": -7.134,
              "z": -4.9215
            }
          },
          {
            "elSymbol": "C",
            "p3d": {
              "x": 5.7131,
              "y": -6.6248,
              "z": -5.5939
            }
          },
          {
            "elSymbol": "C",
            "p3d": {
              "x": 5.829,
              "y": -5.1544,
              "z": -5.5761
            }
          },
          {
            "elSymbol": "C",
            "p3d": {
              "x": 4.9136,
              "y": -4.4844,
              "z": -4.9337
            }
          },
          {
            "elSymbol": "H",
            "p3d": {
              "x": 6.3586,
              "y": -7.3193,
              "z": -6.107
            }
          },
          {
            "elSymbol": "H",
            "p3d": {
              "x": 6.5956,
              "y": -4.5443,
              "z": -6.0507
            }
          }
        ],
        "bonds": [
          {
            "atomIds": [
              1,
              0
            ],
            "bo": "SINGLE"
          },
          {
            "atomIds": [
              2,
              1
            ],
            "bo": "DOUBLE"
          },
          {
            "atomIds": [
              3,
              2
            ],
            "bo": "SINGLE"
          },
          {
            "atomIds": [
              3,
              4
            ],
            "bo": "DOUBLE"
          },
          {
            "atomIds": [
              4,
              0
            ],
            "bo": "SINGLE"
          },
          {
            "atomIds": [
              2,
              5
            ],
            "bo": "SINGLE"
          },
          {
            "atomIds": [
              3,
              6
            ],
            "bo": "SINGLE"
          }
        ]
      },
      "vertexId": 115,
      "buildingBlockId": 54,
      "buildingBlockType": "FRAGMENT",
      "isRCV": false,
      "properties": {
        "ATTACHMENT_POINTS": "1#LPhospholeSubR:0:SINGLE:4.2100%-5.7776%-2.4063,MPhosphole:1:SINGLE:1.5693%-5.3781%-4.7398 2#LPhospholeSubAlpha:0:SINGLE:4.3472%-8.5987%-4.7607 5#LPhospholeSubAlpha:0:SINGLE:4.7612%-2.9790%-4.8399 "
      },
      "uniquefyingPropertyKeys": [],
      "allowedMutationTypes": [
        "DELETE",
        "EXTEND",
        "CHANGEBRANCH",
        "CHANGELINK",
        "ADDLINK",
        "DELETELINK",
        "DELETECHAIN"
      ],
      "vertexType": "MolecularFragment"
    },
    {
      "lstAPs": [
        {
          "id": 102609,
          "atomPositionNumber": 0,
          "atomPositionNumberInMol": 42,
          "apClass": {
            "rule": "Xlig",
            "subClass": 1,
            "bndTyp": "SINGLE"
          },
          "dirVec": {
            "x": -0.1753,
            "y": 0.0948,
            "z": -0.4464
          }
        }
      ],
      "lstSymAPs": [],
      "mol": {
        "atoms": [
          {
            "elSymbol": "O",
            "p3d": {
              "x": -0.3534,
              "y": 2.1044,
              "z": -0.7339
            }
          },
          {
            "elSymbol": "C",
            "p3d": {
              "x": -0.5345,
              "y": 2.7646,
              "z": 0.4801
            }
          },
          {
            "elSymbol": "H",
            "p3d": {
              "x": -0.3728,
              "y": 3.8337,
              "z": 0.2724
            }
          },
          {
            "elSymbol": "H",
            "p3d": {
              "x": 0.1816,
              "y": 2.4161,
              "z": 1.2384
            }
          },
          {
            "elSymbol": "H",
            "p3d": {
              "x": -1.553,
              "y": 2.6149,
              "z": 0.8489
            }
          }
        ],
        "bonds": [
          {
            "atomIds": [
              1,
              2
            ],
            "bo": "SINGLE"
          },
          {
            "atomIds": [
              1,
              3
            ],
            "bo": "SINGLE"
          },
          {
            "atomIds": [
              1,
              4
            ],
            "bo": "SINGLE"
          },
          {
            "atomIds": [
              0,
              1
            ],
            "bo": "SINGLE"
          }
        ]
      },
      "vertexId": 86,
      "buildingBlockId": 64,
      "buildingBlockType": "FRAGMENT",
      "isRCV": false,
      "properties": {
        "ATTACHMENT_POINTS": "1#Xlig:1:SINGLE:-0.1753%0.0948%-0.4464 "
      },
      "uniquefyingPropertyKeys": [],
      "allowedMutationTypes": [
        "DELETE",
        "EXTEND",
        "CHANGEBRANCH",
        "CHANGELINK",
        "ADDLINK",
        "DELETELINK",
        "DELETECHAIN"
      ],
      "vertexType": "MolecularFragment"
    },
    {
      "lstAPs": [
        {
          "id": 102646,
          "atomPositionNumber": 1,
          "atomPositionNumberInMol": 18,
          "apClass": {
            "rule": "SubRS",
            "subClass": 1,
            "bndTyp": "SINGLE"
          },
          "dirVec": {
            "x": 0.2985,
            "y": 0.384,
            "z": -0.6258
          }
        }
      ],
      "lstSymAPs": [],
      "mol": {
        "atoms": [
          {
            "elSymbol": "C",
            "p3d": {
              "x": -1.0244,
              "y": -0.2225,
              "z": 1.3991
            }
          },
          {
            "elSymbol": "C",
            "p3d": {
              "x": 0.3973,
              "y": -0.042,
              "z": 0.8195
            }
          },
          {
            "elSymbol": "H",
            "p3d": {
              "x": -1.5635,
              "y": -0.9908,
              "z": 0.8263
            }
          },
          {
            "elSymbol": "H",
            "p3d": {
              "x": -0.941,
              "y": -0.535,
              "z": 2.446
            }
          },
          {
            "elSymbol": "H",
            "p3d": {
              "x": -1.5586,
              "y": 0.7335,
              "z": 1.3382
            }
          },
          {
            "elSymbol": "H",
            "p3d": {
              "x": 0.9335,
              "y": 0.7221,
              "z": 1.4011
            }
          },
          {
            "elSymbol": "H",
            "p3d": {
              "x": 0.927,
              "y": -1.0102,
              "z": 0.9001
            }
          }
        ],
        "bonds": [
          {
            "atomIds": [
              0,
              1
            ],
            "bo": "SINGLE"
          },
          {
            "atomIds": [
              0,
              2
            ],
            "bo": "SINGLE"
          },
          {
            "atomIds": [
              0,
              3
            ],
            "bo": "SINGLE"
          },
          {
            "atomIds": [
              0,
              4
            ],
            "bo": "SINGLE"
          },
          {
            "atomIds": [
              1,
              5
            ],
            "bo": "SINGLE"
          },
          {
            "atomIds": [
              1,
              6
            ],
            "bo": "SINGLE"
          }
        ]
      },
      "vertexId": 77192,
      "buildingBlockId": 31,
      "buildingBlockType": "FRAGMENT",
      "isRCV": false,
      "properties": {
        "ATTACHMENT_POINTS": "2#SubRS:1:SINGLE:0.2985%0.3840%-0.6258 "
      },
      "uniquefyingPropertyKeys": [],
      "allowedMutationTypes": [
        "DELETE",
        "EXTEND",
        "CHANGEBRANCH",
        "CHANGELINK",
        "ADDLINK",
        "DELETELINK",
        "DELETECHAIN"
      ],
      "vertexType": "MolecularFragment"
    },
    {
      "lstAPs": [
        {
          "id": 102647,
          "atomPositionNumber": 1,
          "atomPositionNumberInMol": 25,
          "apClass": {
            "rule": "SubRS",
            "subClass": 1,
            "bndTyp": "SINGLE"
          },
          "dirVec": {
            "x": 0.2985,
            "y": 0.384,
            "z": -0.6258
          }
        }
      ],
      "lstSymAPs": [],
      "mol": {
        "atoms": [
          {
            "elSymbol": "C",
            "p3d": {
              "x": -1.0244,
              "y": -0.2225,
              "z": 1.3991
            }
          },
          {
            "elSymbol": "C",
            "p3d": {
              "x": 0.3973,
              "y": -0.042,
              "z": 0.8195
            }
          },
          {
            "elSymbol": "H",
            "p3d": {
              "x": -1.5635,
              "y": -0.9908,
              "z": 0.8263
            }
          },
          {
            "elSymbol": "H",
            "p3d": {
              "x": -0.941,
              "y": -0.535,
              "z": 2.446
            }
          },
          {
            "elSymbol": "H",
            "p3d": {
              "x": -1.5586,
              "y": 0.7335,
              "z": 1.3382
            }
          },
          {
            "elSymbol": "H",
            "p3d": {
              "x": 0.9335,
              "y": 0.7221,
              "z": 1.4011
            }
          },
          {
            "elSymbol": "H",
            "p3d": {
              "x": 0.927,
              "y": -1.0102,
              "z": 0.9001
            }
          }
        ],
        "bonds": [
          {
            "atomIds": [
              0,
              1
            ],
            "bo": "SINGLE"
          },
          {
            "atomIds": [
              0,
              2
            ],
            "bo": "SINGLE"
          },
          {
            "atomIds": [
              0,
              3
            ],
            "bo": "SINGLE"
          },
          {
            "atomIds": [
              0,
              4
            ],
            "bo": "SINGLE"
          },
          {
            "atomIds": [
              1,
              5
            ],
            "bo": "SINGLE"
          },
          {
            "atomIds": [
              1,
              6
            ],
            "bo": "SINGLE"
          }
        ]
      },
      "vertexId": 77647,
      "buildingBlockId": 31,
      "buildingBlockType": "FRAGMENT",
      "isRCV": false,
      "properties": {
        "ATTACHMENT_POINTS": "2#SubRS:1:SINGLE:0.2985%0.3840%-0.6258 "
      },
      "uniquefyingPropertyKeys": [],
      "allowedMutationTypes": [
        "DELETE",
        "EXTEND",
        "CHANGEBRANCH",
        "CHANGELINK",
        "ADDLINK",
        "DELETELINK",
        "DELETECHAIN"
      ],
      "vertexType": "MolecularFragment"
    },
    {
      "lstAPs": [
        {
          "id": 102648,
          "atomPositionNumber": 0,
          "atomPositionNumberInMol": 31,
          "apClass": {
            "rule": "SubArS",
            "subClass": 1,
            "bndTyp": "SINGLE"
          },
          "dirVec": {
            "x": 0.2973,
            "y": 0.3873,
            "z": -0.6389
          }
        }
      ],
      "lstSymAPs": [],
      "mol": {
        "atoms": [
          {
            "elSymbol": "C",
            "p3d": {
              "x": 1.6995,
              "y": 0.5593,
              "z": -1.2083
            }
          },
          {
            "elSymbol": "C",
            "p3d": {
              "x": 4.2563,
              "y": 0.8754,
              "z": -2.2592
            }
          },
          {
            "elSymbol": "C",
            "p3d": {
              "x": 2.3334,
              "y": 1.79,
              "z": -1.1338
            }
          },
          {
            "elSymbol": "C",
            "p3d": {
              "x": 2.3422,
              "y": -0.5107,
              "z": -1.8125
            }
          },
          {
            "elSymbol": "C",
            "p3d": {
              "x": 3.612,
              "y": -0.3527,
              "z": -2.3321
            }
          },
          {
            "elSymbol": "C",
            "p3d": {
              "x": 3.6062,
              "y": 1.9513,
              "z": -1.6526
            }
          },
          {
            "elSymbol": "H",
            "p3d": {
              "x": 1.833,
              "y": 2.6461,
              "z": -0.6488
            }
          },
          {
            "elSymbol": "H",
            "p3d": {
              "x": 1.8361,
              "y": -1.4773,
              "z": -1.887
            }
          },
          {
            "elSymbol": "H",
            "p3d": {
              "x": 4.115,
              "y": -1.2043,
              "z": -2.8152
            }
          },
          {
            "elSymbol": "H",
            "p3d": {
              "x": 4.1097,
              "y": 2.9214,
              "z": -1.5842
            }
          },
          {
            "elSymbol": "H",
            "p3d": {
              "x": 5.2498,
              "y": 0.9926,
              "z": -2.665
            }
          }
        ],
        "bonds": [
          {
            "atomIds": [
              0,
              3
            ],
            "bo": "SINGLE"
          },
          {
            "atomIds": [
              3,
              4
            ],
            "bo": "DOUBLE"
          },
          {
            "atomIds": [
              1,
              4
            ],
            "bo": "SINGLE"
          },
          {
            "atomIds": [
              1,
              5
            ],
            "bo": "DOUBLE"
          },
          {
            "atomIds": [
              2,
              5
            ],
            "bo": "SINGLE"
          },
          {
            "atomIds": [
              0,
              2
            ],
            "bo": "DOUBLE"
          },
          {
            "atomIds": [
              4,
              8
            ],
            "bo": "SINGLE"
          },
          {
            "atomIds": [
              5,
              9
            ],
            "bo": "SINGLE"
          },
          {
            "atomIds": [
              1,
              10
            ],
            "bo": "SINGLE"
          },
          {
            "atomIds": [
              2,
              6
            ],
            "bo": "SINGLE"
          },
          {
            "atomIds": [
              3,
              7
            ],
            "bo": "SINGLE"
          }
        ]
      },
      "vertexId": 77187,
      "buildingBlockId": 35,
      "buildingBlockType": "FRAGMENT",
      "isRCV": false,
      "properties": {
        "ATTACHMENT_POINTS": "1#SubArS:1:SINGLE:0.2973%0.3873%-0.6389 "
      },
      "uniquefyingPropertyKeys": [],
      "allowedMutationTypes": [
        "DELETE",
        "EXTEND",
        "CHANGEBRANCH",
        "CHANGELINK",
        "ADDLINK",
        "DELETELINK",
        "DELETECHAIN"
      ],
      "vertexType": "MolecularFragment"
    }
  ],
  "gEdges": [
    {
      "srcAPID": 102601,
      "trgAPID": 102604,
      "bondType": "SINGLE"
    },
    {
      "srcAPID": 102603,
      "trgAPID": 102606,
      "bondType": "SINGLE"
    },
    {
      "srcAPID": 102602,
      "trgAPID": 102609,
      "bondType": "SINGLE"
    },
    {
      "srcAPID": 102607,
      "trgAPID": 102646,
      "bondType": "SINGLE"
    },
    {
      "srcAPID": 102608,
      "trgAPID": 102647,
      "bondType": "SINGLE"
    },
    {
      "srcAPID": 102605,
      "trgAPID": 102648,
      "bondType": "SINGLE"
    }
  ],
  "gRings": [],
  "symVertices": [
    {
      "symIds": [
        77192,
        77647
      ]
    }
  ]
}

> <SMILES>
[Pt](C#O)(OC([H])([H])[H])([P]1(C(=C(C(=C1C(C([H])([H])[H])([H])[H])[H])[H])C(C([H])([H])[H])([H])[H])C=2C(=C(C(=C(C2[H])[H])[H])[H])[H])OC([H])([H])[H]

$$$$
