M00021283
  CDK     04222216193D

 44 46  0  0  0  0  0  0  0  0999 V2000
   -2.6615   -0.4166   -0.6262 Pt  0  0  0  0  0  0  0  0  0  0  0  0
   -4.5992   -0.7634   -0.5413 C   0  0  0  0  0  0  0  0  0  0  0  0
   -5.7120   -1.0101   -0.4845 O   0  0  0  0  0  0  0  0  0  0  0  0
   -3.3915    1.4464   -0.9335 O   0  0  0  0  0  0  0  0  0  0  0  0
   -2.5961    2.4341   -0.3106 C   0  0  0  0  0  0  0  0  0  0  0  0
   -3.1875    3.3592   -0.3735 H   0  0  0  0  0  0  0  0  0  0  0  0
   -1.6523    2.5569   -0.8622 H   0  0  0  0  0  0  0  0  0  0  0  0
   -2.4144    2.1715    0.7381 H   0  0  0  0  0  0  0  0  0  0  0  0
    0.4370   -0.2566    1.7699 C   0  0  0  0  0  0  0  0  0  0  0  0
   -0.3483   -0.6742    2.8492 C   0  0  0  0  0  0  0  0  0  0  0  0
   -1.0280   -1.5243    2.7222 H   0  0  0  0  0  0  0  0  0  0  0  0
   -0.2284    0.0056    4.0621 C   0  0  0  0  0  0  0  0  0  0  0  0
   -0.8258   -0.3046    4.9195 H   0  0  0  0  0  0  0  0  0  0  0  0
    0.6552    1.0854    4.1764 C   0  0  0  0  0  0  0  0  0  0  0  0
    0.7403    1.6159    5.1247 H   0  0  0  0  0  0  0  0  0  0  0  0
    1.4273    1.4934    3.0852 C   0  0  0  0  0  0  0  0  0  0  0  0
    2.1029    2.3440    3.1862 H   0  0  0  0  0  0  0  0  0  0  0  0
    1.3369    0.8263    1.8528 C   0  0  0  0  0  0  0  0  0  0  0  0
    2.1361    1.2422    0.6908 C   0  0  0  0  0  0  0  0  0  0  0  0
    3.4999    1.5521    0.8133 C   0  0  0  0  0  0  0  0  0  0  0  0
    3.9826    1.4731    1.7882 H   0  0  0  0  0  0  0  0  0  0  0  0
    4.2447    1.9474   -0.3009 C   0  0  0  0  0  0  0  0  0  0  0  0
    5.3025    2.1820   -0.1867 H   0  0  0  0  0  0  0  0  0  0  0  0
    3.6448    2.0399   -1.5622 C   0  0  0  0  0  0  0  0  0  0  0  0
    4.2340    2.3495   -2.4256 H   0  0  0  0  0  0  0  0  0  0  0  0
    2.2924    1.7318   -1.7215 C   0  0  0  0  0  0  0  0  0  0  0  0
    1.8011    1.7934   -2.6920 H   0  0  0  0  0  0  0  0  0  0  0  0
    1.5634    1.3388   -0.5949 C   0  0  0  0  0  0  0  0  0  0  0  0
    0.4007   -1.0557    0.6210 O   0  0  0  0  0  0  0  0  0  0  0  0
    0.1864    1.1677   -0.7652 O   0  0  0  0  0  0  0  0  0  0  0  0
   -0.4251   -0.3956   -0.6802 P   0  0  0  0  0  0  0  0  0  0  0  0
    0.3474   -1.1282   -1.9195 O   0  0  0  0  0  0  0  0  0  0  0  0
    0.3179   -2.2052   -3.9912 C   0  0  0  0  0  0  0  0  0  0  0  0
   -0.4481   -2.1178   -2.6896 C   0  0  0  0  0  0  0  0  0  0  0  0
    1.3937   -2.3465   -3.8041 H   0  0  0  0  0  0  0  0  0  0  0  0
   -0.0294   -3.0481   -4.6011 H   0  0  0  0  0  0  0  0  0  0  0  0
    0.2200   -1.2890   -4.5878 H   0  0  0  0  0  0  0  0  0  0  0  0
   -1.4909   -1.7678   -2.8206 H   0  0  0  0  0  0  0  0  0  0  0  0
   -0.4301   -3.0610   -2.1037 H   0  0  0  0  0  0  0  0  0  0  0  0
   -1.8347   -2.3045   -0.4854 O   0  0  0  0  0  0  0  0  0  0  0  0
   -2.1851   -2.9849    0.7014 C   0  0  0  0  0  0  0  0  0  0  0  0
   -3.2690   -3.1463    0.7191 H   0  0  0  0  0  0  0  0  0  0  0  0
   -1.8576   -2.4108    1.5842 H   0  0  0  0  0  0  0  0  0  0  0  0
   -1.6522   -3.9456    0.6594 H   0  0  0  0  0  0  0  0  0  0  0  0
  2  3  3  0  0  0  0
  1  2  1  0  0  0  0
  5  6  1  0  0  0  0
  5  7  1  0  0  0  0
  5  8  1  0  0  0  0
  4  5  1  0  0  0  0
  1  4  1  0  0  0  0
  9 10  2  0  0  0  0
 10 11  1  0  0  0  0
 12 10  1  0  0  0  0
 13 12  1  0  0  0  0
 14 12  2  0  0  0  0
 15 14  1  0  0  0  0
 16 14  1  0  0  0  0
 16 18  2  0  0  0  0
 17 16  1  0  0  0  0
 18  9  1  0  0  0  0
 19 18  1  0  0  0  0
 20 19  2  0  0  0  0
 21 20  1  0  0  0  0
 22 20  1  0  0  0  0
 23 22  1  0  0  0  0
 24 22  2  0  0  0  0
 25 24  1  0  0  0  0
 26 24  1  0  0  0  0
 26 28  2  0  0  0  0
 27 26  1  0  0  0  0
 28 19  1  0  0  0  0
 29  9  1  0  0  0  0
 29 31  1  0  0  0  0
 30 28  1  0  0  0  0
 30 31  1  0  0  0  0
  1 31  1  0  0  0  0
 31 32  1  0  0  0  0
 33 34  1  0  0  0  0
 33 35  1  0  0  0  0
 33 36  1  0  0  0  0
 33 37  1  0  0  0  0
 34 38  1  0  0  0  0
 34 39  1  0  0  0  0
 32 34  1  0  0  0  0
 41 42  1  0  0  0  0
 41 43  1  0  0  0  0
 41 44  1  0  0  0  0
 40 41  1  0  0  0  0
  1 40  1  0  0  0  0
M  END
> <PM6_ENERGY>
-772.738

> <UID>
KQOZVYDFOODVLV-KANZYYNGNA-N

> <FITNESS>
1.14123

> <GCODE>
22644

> <GraphENC>
22644 72_1_0,80_65_1,110_49_1,86_65_1,73955_52_1,560706_32_1, 72_0_80_0_SINGLE_Xlig:0_Xlig:1,72_2_110_1_SINGLE_scaff:0_MPhosphite:1,72_1_86_0_SINGLE_Xlig:0_Xlig:1,110_0_73955_0_SINGLE_LPhosphiteSubO:0_LPhosphiteSubO:1,73955_1_560706_0_SINGLE_OPhosphiteSub:1_SubRS:1, 

> <GraphJson>
{
  "graphId": 22644,
  "gVertices": [
    {
      "lstAPs": [
        {
          "id": 622774,
          "atomPositionNumber": 0,
          "atomPositionNumberInMol": 0,
          "apClass": {
            "rule": "Xlig",
            "subClass": 0,
            "bndTyp": "SINGLE"
          },
          "dirVec": {
            "x": -2.3339,
            "y": -0.0087,
            "z": 0.8172
          }
        },
        {
          "id": 622775,
          "atomPositionNumber": 0,
          "atomPositionNumberInMol": 0,
          "apClass": {
            "rule": "Xlig",
            "subClass": 0,
            "bndTyp": "SINGLE"
          },
          "dirVec": {
            "x": 2.336,
            "y": -5.0E-4,
            "z": 0.829
          }
        },
        {
          "id": 622776,
          "atomPositionNumber": 0,
          "atomPositionNumberInMol": 0,
          "apClass": {
            "rule": "scaff",
            "subClass": 0,
            "bndTyp": "SINGLE"
          },
          "dirVec": {
            "x": -0.0095,
            "y": 0.0046,
            "z": -1.7113
          }
        }
      ],
      "lstSymAPs": [
        {
          "symIds": [
            0,
            1
          ]
        }
      ],
      "mol": {
        "atoms": [
          {
            "elSymbol": "Pt",
            "p3d": {
              "x": -0.0098,
              "y": 0.0049,
              "z": 0.6289
            }
          },
          {
            "elSymbol": "C",
            "p3d": {
              "x": -6.0E-4,
              "y": 0.0016,
              "z": 2.5609
            }
          },
          {
            "elSymbol": "O",
            "p3d": {
              "x": 0.0025,
              "y": -0.0041,
              "z": 3.6974
            }
          },
          {
            "elSymbol": "Du",
            "p3d": {
              "x": -0.007,
              "y": 1.0013,
              "z": 0.6372
            }
          },
          {
            "elSymbol": "Du",
            "p3d": {
              "x": -0.0014,
              "y": 0.9902,
              "z": 2.5698
            }
          }
        ],
        "bonds": [
          {
            "atomIds": [
              1,
              2
            ],
            "bo": "TRIPLE"
          },
          {
            "atomIds": [
              0,
              1
            ],
            "bo": "SINGLE"
          },
          {
            "atomIds": [
              3,
              0
            ],
            "bo": "SINGLE"
          },
          {
            "atomIds": [
              4,
              1
            ],
            "bo": "SINGLE"
          }
        ]
      },
      "vertexId": 72,
      "buildingBlockId": 0,
      "buildingBlockType": "SCAFFOLD",
      "isRCV": false,
      "properties": {
        "ATTACHMENT_POINTS": "1#Xlig:0:SINGLE:-2.3339%-0.0087%0.8172,Xlig:0:SINGLE:2.3360%-0.0005%0.8290,scaff:0:SINGLE:-0.0095%0.0046%-1.7113 "
      },
      "uniquefyingPropertyKeys": [],
      "allowedMutationTypes": [
        "DELETE",
        "EXTEND",
        "CHANGEBRANCH",
        "CHANGELINK",
        "ADDLINK",
        "DELETELINK",
        "DELETECHAIN"
      ],
      "vertexType": "MolecularFragment"
    },
    {
      "lstAPs": [
        {
          "id": 622777,
          "atomPositionNumber": 0,
          "atomPositionNumberInMol": 5,
          "apClass": {
            "rule": "Xlig",
            "subClass": 1,
            "bndTyp": "SINGLE"
          },
          "dirVec": {
            "x": -0.1753,
            "y": 0.0948,
            "z": -0.4464
          }
        }
      ],
      "lstSymAPs": [],
      "mol": {
        "atoms": [
          {
            "elSymbol": "O",
            "p3d": {
              "x": -0.3534,
              "y": 2.1044,
              "z": -0.7339
            }
          },
          {
            "elSymbol": "C",
            "p3d": {
              "x": -0.5345,
              "y": 2.7646,
              "z": 0.4801
            }
          },
          {
            "elSymbol": "H",
            "p3d": {
              "x": -0.3728,
              "y": 3.8337,
              "z": 0.2724
            }
          },
          {
            "elSymbol": "H",
            "p3d": {
              "x": 0.1816,
              "y": 2.4161,
              "z": 1.2384
            }
          },
          {
            "elSymbol": "H",
            "p3d": {
              "x": -1.553,
              "y": 2.6149,
              "z": 0.8489
            }
          }
        ],
        "bonds": [
          {
            "atomIds": [
              1,
              2
            ],
            "bo": "SINGLE"
          },
          {
            "atomIds": [
              1,
              3
            ],
            "bo": "SINGLE"
          },
          {
            "atomIds": [
              1,
              4
            ],
            "bo": "SINGLE"
          },
          {
            "atomIds": [
              0,
              1
            ],
            "bo": "SINGLE"
          }
        ]
      },
      "vertexId": 80,
      "buildingBlockId": 64,
      "buildingBlockType": "FRAGMENT",
      "isRCV": false,
      "properties": {
        "ATTACHMENT_POINTS": "1#Xlig:1:SINGLE:-0.1753%0.0948%-0.4464 "
      },
      "uniquefyingPropertyKeys": [],
      "allowedMutationTypes": [
        "DELETE",
        "EXTEND",
        "CHANGEBRANCH",
        "CHANGELINK",
        "ADDLINK",
        "DELETELINK",
        "DELETECHAIN"
      ],
      "vertexType": "MolecularFragment"
    },
    {
      "lstAPs": [
        {
          "id": 622778,
          "atomPositionNumber": 22,
          "atomPositionNumberInMol": 32,
          "apClass": {
            "rule": "LPhosphiteSubO",
            "subClass": 0,
            "bndTyp": "SINGLE"
          },
          "dirVec": {
            "x": 6.6821,
            "y": 5.3677,
            "z": 17.7965
          }
        },
        {
          "id": 622779,
          "atomPositionNumber": 22,
          "atomPositionNumberInMol": 32,
          "apClass": {
            "rule": "MPhosphite",
            "subClass": 1,
            "bndTyp": "SINGLE"
          },
          "dirVec": {
            "x": 5.2115,
            "y": 8.219,
            "z": 18.2686
          }
        }
      ],
      "lstSymAPs": [],
      "mol": {
        "atoms": [
          {
            "elSymbol": "C",
            "p3d": {
              "x": 8.868,
              "y": 7.7904,
              "z": 19.5309
            }
          },
          {
            "elSymbol": "C",
            "p3d": {
              "x": 8.6758,
              "y": 8.541,
              "z": 20.6816
            }
          },
          {
            "elSymbol": "H",
            "p3d": {
              "x": 7.7959,
              "y": 8.3781,
              "z": 21.2982
            }
          },
          {
            "elSymbol": "C",
            "p3d": {
              "x": 9.6226,
              "y": 9.508,
              "z": 21.0124
            }
          },
          {
            "elSymbol": "H",
            "p3d": {
              "x": 9.4801,
              "y": 10.1014,
              "z": 21.9119
            }
          },
          {
            "elSymbol": "C",
            "p3d": {
              "x": 10.6714,
              "y": 9.7257,
              "z": 20.2615
            }
          },
          {
            "elSymbol": "H",
            "p3d": {
              "x": 11.369,
              "y": 10.5105,
              "z": 20.5337
            }
          },
          {
            "elSymbol": "C",
            "p3d": {
              "x": 10.8922,
              "y": 8.9513,
              "z": 19.0933
            }
          },
          {
            "elSymbol": "H",
            "p3d": {
              "x": 11.7788,
              "y": 9.1364,
              "z": 18.5012
            }
          },
          {
            "elSymbol": "C",
            "p3d": {
              "x": 9.9896,
              "y": 7.9623,
              "z": 18.7237
            }
          },
          {
            "elSymbol": "C",
            "p3d": {
              "x": 10.1857,
              "y": 7.1333,
              "z": 17.5283
            }
          },
          {
            "elSymbol": "C",
            "p3d": {
              "x": 11.42,
              "y": 6.6249,
              "z": 17.1632
            }
          },
          {
            "elSymbol": "H",
            "p3d": {
              "x": 12.2741,
              "y": 6.8237,
              "z": 17.826
            }
          },
          {
            "elSymbol": "C",
            "p3d": {
              "x": 11.6652,
              "y": 5.8687,
              "z": 16.0429
            }
          },
          {
            "elSymbol": "H",
            "p3d": {
              "x": 12.6727,
              "y": 5.5494,
              "z": 15.7739
            }
          },
          {
            "elSymbol": "C",
            "p3d": {
              "x": 10.5758,
              "y": 5.5431,
              "z": 15.2313
            }
          },
          {
            "elSymbol": "H",
            "p3d": {
              "x": 10.7121,
              "y": 4.8845,
              "z": 14.3736
            }
          },
          {
            "elSymbol": "C",
            "p3d": {
              "x": 9.3214,
              "y": 6.0404,
              "z": 15.5538
            }
          },
          {
            "elSymbol": "H",
            "p3d": {
              "x": 8.4837,
              "y": 5.8344,
              "z": 14.9027
            }
          },
          {
            "elSymbol": "C",
            "p3d": {
              "x": 9.1581,
              "y": 6.8298,
              "z": 16.6773
            }
          },
          {
            "elSymbol": "O",
            "p3d": {
              "x": 7.9608,
              "y": 6.7634,
              "z": 19.2501
            }
          },
          {
            "elSymbol": "O",
            "p3d": {
              "x": 7.8839,
              "y": 7.3746,
              "z": 16.893
            }
          },
          {
            "elSymbol": "P",
            "p3d": {
              "x": 6.9287,
              "y": 6.8843,
              "z": 18.0447
            }
          }
        ],
        "bonds": [
          {
            "atomIds": [
              0,
              1
            ],
            "bo": "DOUBLE"
          },
          {
            "atomIds": [
              1,
              2
            ],
            "bo": "SINGLE"
          },
          {
            "atomIds": [
              3,
              1
            ],
            "bo": "SINGLE"
          },
          {
            "atomIds": [
              4,
              3
            ],
            "bo": "SINGLE"
          },
          {
            "atomIds": [
              5,
              3
            ],
            "bo": "DOUBLE"
          },
          {
            "atomIds": [
              6,
              5
            ],
            "bo": "SINGLE"
          },
          {
            "atomIds": [
              7,
              5
            ],
            "bo": "SINGLE"
          },
          {
            "atomIds": [
              7,
              9
            ],
            "bo": "DOUBLE"
          },
          {
            "atomIds": [
              8,
              7
            ],
            "bo": "SINGLE"
          },
          {
            "atomIds": [
              9,
              0
            ],
            "bo": "SINGLE"
          },
          {
            "atomIds": [
              10,
              9
            ],
            "bo": "SINGLE"
          },
          {
            "atomIds": [
              11,
              10
            ],
            "bo": "DOUBLE"
          },
          {
            "atomIds": [
              12,
              11
            ],
            "bo": "SINGLE"
          },
          {
            "atomIds": [
              13,
              11
            ],
            "bo": "SINGLE"
          },
          {
            "atomIds": [
              14,
              13
            ],
            "bo": "SINGLE"
          },
          {
            "atomIds": [
              15,
              13
            ],
            "bo": "DOUBLE"
          },
          {
            "atomIds": [
              16,
              15
            ],
            "bo": "SINGLE"
          },
          {
            "atomIds": [
              17,
              15
            ],
            "bo": "SINGLE"
          },
          {
            "atomIds": [
              17,
              19
            ],
            "bo": "DOUBLE"
          },
          {
            "atomIds": [
              18,
              17
            ],
            "bo": "SINGLE"
          },
          {
            "atomIds": [
              19,
              10
            ],
            "bo": "SINGLE"
          },
          {
            "atomIds": [
              20,
              0
            ],
            "bo": "SINGLE"
          },
          {
            "atomIds": [
              20,
              22
            ],
            "bo": "SINGLE"
          },
          {
            "atomIds": [
              21,
              19
            ],
            "bo": "SINGLE"
          },
          {
            "atomIds": [
              21,
              22
            ],
            "bo": "SINGLE"
          }
        ]
      },
      "vertexId": 110,
      "buildingBlockId": 48,
      "buildingBlockType": "FRAGMENT",
      "isRCV": false,
      "properties": {
        "ATTACHMENT_POINTS": "23#LPhosphiteSubO:0:SINGLE:6.6821%5.3677%17.7965,MPhosphite:1:SINGLE:5.2115%8.2190%18.2686 "
      },
      "uniquefyingPropertyKeys": [],
      "allowedMutationTypes": [
        "DELETE",
        "EXTEND",
        "CHANGEBRANCH",
        "CHANGELINK",
        "ADDLINK",
        "DELETELINK",
        "DELETECHAIN"
      ],
      "vertexType": "MolecularFragment"
    },
    {
      "lstAPs": [
        {
          "id": 622780,
          "atomPositionNumber": 0,
          "atomPositionNumberInMol": 41,
          "apClass": {
            "rule": "Xlig",
            "subClass": 1,
            "bndTyp": "SINGLE"
          },
          "dirVec": {
            "x": -0.1753,
            "y": 0.0948,
            "z": -0.4464
          }
        }
      ],
      "lstSymAPs": [],
      "mol": {
        "atoms": [
          {
            "elSymbol": "O",
            "p3d": {
              "x": -0.3534,
              "y": 2.1044,
              "z": -0.7339
            }
          },
          {
            "elSymbol": "C",
            "p3d": {
              "x": -0.5345,
              "y": 2.7646,
              "z": 0.4801
            }
          },
          {
            "elSymbol": "H",
            "p3d": {
              "x": -0.3728,
              "y": 3.8337,
              "z": 0.2724
            }
          },
          {
            "elSymbol": "H",
            "p3d": {
              "x": 0.1816,
              "y": 2.4161,
              "z": 1.2384
            }
          },
          {
            "elSymbol": "H",
            "p3d": {
              "x": -1.553,
              "y": 2.6149,
              "z": 0.8489
            }
          }
        ],
        "bonds": [
          {
            "atomIds": [
              1,
              2
            ],
            "bo": "SINGLE"
          },
          {
            "atomIds": [
              1,
              3
            ],
            "bo": "SINGLE"
          },
          {
            "atomIds": [
              1,
              4
            ],
            "bo": "SINGLE"
          },
          {
            "atomIds": [
              0,
              1
            ],
            "bo": "SINGLE"
          }
        ]
      },
      "vertexId": 86,
      "buildingBlockId": 64,
      "buildingBlockType": "FRAGMENT",
      "isRCV": false,
      "properties": {
        "ATTACHMENT_POINTS": "1#Xlig:1:SINGLE:-0.1753%0.0948%-0.4464 "
      },
      "uniquefyingPropertyKeys": [],
      "allowedMutationTypes": [
        "DELETE",
        "EXTEND",
        "CHANGEBRANCH",
        "CHANGELINK",
        "ADDLINK",
        "DELETELINK",
        "DELETECHAIN"
      ],
      "vertexType": "MolecularFragment"
    },
    {
      "lstAPs": [
        {
          "id": 622781,
          "atomPositionNumber": 0,
          "atomPositionNumberInMol": 33,
          "apClass": {
            "rule": "LPhosphiteSubO",
            "subClass": 1,
            "bndTyp": "SINGLE"
          },
          "dirVec": {
            "x": 0.7035,
            "y": 2.9119,
            "z": 2.8175
          }
        },
        {
          "id": 622782,
          "atomPositionNumber": 0,
          "atomPositionNumberInMol": 33,
          "apClass": {
            "rule": "OPhosphiteSub",
            "subClass": 1,
            "bndTyp": "SINGLE"
          },
          "dirVec": {
            "x": 0.0564,
            "y": 5.2897,
            "z": 1.9394
          }
        }
      ],
      "lstSymAPs": [],
      "mol": {
        "atoms": [
          {
            "elSymbol": "O",
            "p3d": {
              "x": -0.1418,
              "y": 4.2412,
              "z": 2.9314
            }
          }
        ],
        "bonds": []
      },
      "vertexId": 73955,
      "buildingBlockId": 51,
      "buildingBlockType": "FRAGMENT",
      "isRCV": false,
      "properties": {
        "ATTACHMENT_POINTS": "1#LPhosphiteSubO:1:SINGLE:0.7035%2.9119%2.8175,OPhosphiteSub:1:SINGLE:0.0564%5.2897%1.9394 "
      },
      "uniquefyingPropertyKeys": [],
      "allowedMutationTypes": [
        "DELETE",
        "EXTEND",
        "CHANGEBRANCH",
        "CHANGELINK",
        "ADDLINK",
        "DELETELINK",
        "DELETECHAIN"
      ],
      "vertexType": "MolecularFragment"
    },
    {
      "lstAPs": [
        {
          "id": 622817,
          "atomPositionNumber": 1,
          "atomPositionNumberInMol": 35,
          "apClass": {
            "rule": "SubRS",
            "subClass": 1,
            "bndTyp": "SINGLE"
          },
          "dirVec": {
            "x": 0.2985,
            "y": 0.384,
            "z": -0.6258
          }
        }
      ],
      "lstSymAPs": [],
      "mol": {
        "atoms": [
          {
            "elSymbol": "C",
            "p3d": {
              "x": -1.0244,
              "y": -0.2225,
              "z": 1.3991
            }
          },
          {
            "elSymbol": "C",
            "p3d": {
              "x": 0.3973,
              "y": -0.042,
              "z": 0.8195
            }
          },
          {
            "elSymbol": "H",
            "p3d": {
              "x": -1.5635,
              "y": -0.9908,
              "z": 0.8263
            }
          },
          {
            "elSymbol": "H",
            "p3d": {
              "x": -0.941,
              "y": -0.535,
              "z": 2.446
            }
          },
          {
            "elSymbol": "H",
            "p3d": {
              "x": -1.5586,
              "y": 0.7335,
              "z": 1.3382
            }
          },
          {
            "elSymbol": "H",
            "p3d": {
              "x": 0.9335,
              "y": 0.7221,
              "z": 1.4011
            }
          },
          {
            "elSymbol": "H",
            "p3d": {
              "x": 0.927,
              "y": -1.0102,
              "z": 0.9001
            }
          }
        ],
        "bonds": [
          {
            "atomIds": [
              0,
              1
            ],
            "bo": "SINGLE"
          },
          {
            "atomIds": [
              0,
              2
            ],
            "bo": "SINGLE"
          },
          {
            "atomIds": [
              0,
              3
            ],
            "bo": "SINGLE"
          },
          {
            "atomIds": [
              0,
              4
            ],
            "bo": "SINGLE"
          },
          {
            "atomIds": [
              1,
              5
            ],
            "bo": "SINGLE"
          },
          {
            "atomIds": [
              1,
              6
            ],
            "bo": "SINGLE"
          }
        ]
      },
      "vertexId": 560706,
      "buildingBlockId": 31,
      "buildingBlockType": "FRAGMENT",
      "isRCV": false,
      "properties": {
        "ATTACHMENT_POINTS": "2#SubRS:1:SINGLE:0.2985%0.3840%-0.6258 "
      },
      "uniquefyingPropertyKeys": [],
      "allowedMutationTypes": [
        "DELETE",
        "EXTEND",
        "CHANGEBRANCH",
        "CHANGELINK",
        "ADDLINK",
        "DELETELINK",
        "DELETECHAIN"
      ],
      "vertexType": "MolecularFragment"
    }
  ],
  "gEdges": [
    {
      "srcAPID": 622774,
      "trgAPID": 622777,
      "bondType": "SINGLE"
    },
    {
      "srcAPID": 622776,
      "trgAPID": 622779,
      "bondType": "SINGLE"
    },
    {
      "srcAPID": 622775,
      "trgAPID": 622780,
      "bondType": "SINGLE"
    },
    {
      "srcAPID": 622778,
      "trgAPID": 622781,
      "bondType": "SINGLE"
    },
    {
      "srcAPID": 622782,
      "trgAPID": 622817,
      "bondType": "SINGLE"
    }
  ],
  "gRings": [],
  "symVertices": []
}

> <SMILES>
[Pt](C#O)(OC([H])([H])[H])([P]1(OC2=C([H])C([H])=C([H])C(=C2C3=C([H])C([H])=C([H])C(=C3O1)[H])[H])OC(C([H])([H])[H])([H])[H])OC([H])([H])[H]

$$$$
