M00018858
  CDK     04222215253D

 62 67  0  0  0  0  0  0  0  0999 V2000
   -3.6773   -0.7383   -0.9941 Pt  0  0  0  0  0  0  0  0  0  0  0  0
   -5.5936   -1.1865   -1.0471 C   0  0  0  0  0  0  0  0  0  0  0  0
   -6.6953   -1.4713   -1.0779 O   0  0  0  0  0  0  0  0  0  0  0  0
   -4.4559    1.3483   -0.0926 Cl  0  0  0  0  0  0  0  0  0  0  0  0
   -1.4554   -0.3670   -1.0074 P   0  0  0  0  0  0  0  0  0  0  0  0
   -0.8182    0.9602   -0.2016 O   0  0  0  0  0  0  0  0  0  0  0  0
   -0.6466   -1.6968   -0.3995 O   0  0  0  0  0  0  0  0  0  0  0  0
   -0.6896    0.7718    1.1875 C   0  0  0  0  0  0  0  0  0  0  0  0
   -1.5844    1.5244    1.9945 C   0  0  0  0  0  0  0  0  0  0  0  0
   -2.3475    2.1425    1.5072 H   0  0  0  0  0  0  0  0  0  0  0  0
   -1.4570    1.4390    3.3559 C   0  0  0  0  0  0  0  0  0  0  0  0
   -2.1182    2.0102    4.0104 H   0  0  0  0  0  0  0  0  0  0  0  0
   -0.4723    0.5818    3.9457 C   0  0  0  0  0  0  0  0  0  0  0  0
   -0.3798    0.4555    5.3687 C   0  0  0  0  0  0  0  0  0  0  0  0
   -1.0503    1.0506    5.9888 H   0  0  0  0  0  0  0  0  0  0  0  0
    0.5281   -0.4015    5.9367 C   0  0  0  0  0  0  0  0  0  0  0  0
    0.6030   -0.5033    7.0187 H   0  0  0  0  0  0  0  0  0  0  0  0
    1.3863   -1.1839    5.1110 C   0  0  0  0  0  0  0  0  0  0  0  0
    2.0843   -1.8735    5.5854 H   0  0  0  0  0  0  0  0  0  0  0  0
    1.3286   -1.0736    3.7448 C   0  0  0  0  0  0  0  0  0  0  0  0
    1.9766   -1.6836    3.1130 H   0  0  0  0  0  0  0  0  0  0  0  0
    0.4090   -0.1703    3.1210 C   0  0  0  0  0  0  0  0  0  0  0  0
    0.3281   -0.0227    1.6916 C   0  0  0  0  0  0  0  0  0  0  0  0
    1.2473   -0.7133    0.7681 C   0  0  0  0  0  0  0  0  0  0  0  0
    2.6772   -0.5603    0.8429 C   0  0  0  0  0  0  0  0  0  0  0  0
    3.2990    0.3531    1.7537 C   0  0  0  0  0  0  0  0  0  0  0  0
    2.6653    0.9619    2.4023 H   0  0  0  0  0  0  0  0  0  0  0  0
    4.6648    0.4730    1.8048 C   0  0  0  0  0  0  0  0  0  0  0  0
    5.1374    1.1699    2.4971 H   0  0  0  0  0  0  0  0  0  0  0  0
    5.4919   -0.3102    0.9488 C   0  0  0  0  0  0  0  0  0  0  0  0
    6.5737   -0.2016    1.0193 H   0  0  0  0  0  0  0  0  0  0  0  0
    4.9258   -1.1779    0.0498 C   0  0  0  0  0  0  0  0  0  0  0  0
    5.5474   -1.7753   -0.6170 H   0  0  0  0  0  0  0  0  0  0  0  0
    3.5035   -1.3134   -0.0357 C   0  0  0  0  0  0  0  0  0  0  0  0
    2.9144   -2.1829   -1.0101 C   0  0  0  0  0  0  0  0  0  0  0  0
    3.5705   -2.7615   -1.6625 H   0  0  0  0  0  0  0  0  0  0  0  0
    1.5532   -2.2716   -1.1336 C   0  0  0  0  0  0  0  0  0  0  0  0
    1.0665   -2.9000   -1.8818 H   0  0  0  0  0  0  0  0  0  0  0  0
    0.7435   -1.5123   -0.2450 C   0  0  0  0  0  0  0  0  0  0  0  0
   -0.7752   -0.1752   -2.5112 O   0  0  0  0  0  0  0  0  0  0  0  0
   -0.8688    1.1386   -3.0348 C   0  0  0  0  0  0  0  0  0  0  0  0
   -0.8808    3.5966   -4.2904 C   0  0  0  0  0  0  0  0  0  0  0  0
   -2.0483    1.5497   -3.6823 C   0  0  0  0  0  0  0  0  0  0  0  0
    0.3066    1.9162   -2.9987 C   0  0  0  0  0  0  0  0  0  0  0  0
    0.2789    3.1601   -3.6437 C   0  0  0  0  0  0  0  0  0  0  0  0
   -2.0310    2.8053   -4.3105 C   0  0  0  0  0  0  0  0  0  0  0  0
    1.1661    3.7909   -3.6364 H   0  0  0  0  0  0  0  0  0  0  0  0
   -2.9275    3.1645   -4.8146 H   0  0  0  0  0  0  0  0  0  0  0  0
   -0.8880    4.5690   -4.7841 H   0  0  0  0  0  0  0  0  0  0  0  0
   -3.2814    0.7121   -3.6912 C   0  0  0  0  0  0  0  0  0  0  0  0
   -3.9318    0.9519   -2.8234 H   0  0  0  0  0  0  0  0  0  0  0  0
   -3.0653   -0.3707   -3.6912 H   0  0  0  0  0  0  0  0  0  0  0  0
   -3.8929    0.8959   -4.5882 H   0  0  0  0  0  0  0  0  0  0  0  0
    1.5203    1.4335   -2.2844 C   0  0  0  0  0  0  0  0  0  0  0  0
    1.7071    0.3648   -2.4744 H   0  0  0  0  0  0  0  0  0  0  0  0
    1.3982    1.5501   -1.1924 H   0  0  0  0  0  0  0  0  0  0  0  0
    2.4278    1.9799   -2.5696 H   0  0  0  0  0  0  0  0  0  0  0  0
   -3.4911   -2.8652   -1.8702 S   0  0  0  0  0  0  0  0  0  0  0  0
   -2.9615   -3.6999   -0.3556 C   0  0  0  0  0  0  0  0  0  0  0  0
   -3.2917   -4.7454   -0.3851 H   0  0  0  0  0  0  0  0  0  0  0  0
   -3.3886   -3.2261    0.5366 H   0  0  0  0  0  0  0  0  0  0  0  0
   -1.8652   -3.6862   -0.2658 H   0  0  0  0  0  0  0  0  0  0  0  0
  2  3  3  0  0  0  0
  1  2  1  0  0  0  0
  1  4  1  0  0  0  0
  6  5  1  0  0  0  0
  7  5  1  0  0  0  0
  8  6  1  0  0  0  0
  9  8  2  0  0  0  0
 10  9  1  0  0  0  0
 11  9  1  0  0  0  0
 12 11  1  0  0  0  0
 13 11  2  0  0  0  0
 14 13  1  0  0  0  0
 15 14  1  0  0  0  0
 16 14  2  0  0  0  0
 17 16  1  0  0  0  0
 18 16  1  0  0  0  0
 19 18  1  0  0  0  0
 20 18  2  0  0  0  0
 20 22  1  0  0  0  0
 21 20  1  0  0  0  0
 22 13  1  0  0  0  0
 22 23  2  0  0  0  0
 23  8  1  0  0  0  0
 24 23  1  0  0  0  0
 24 39  1  0  0  0  0
 25 24  2  0  0  0  0
 26 25  1  0  0  0  0
 27 26  1  0  0  0  0
 28 26  2  0  0  0  0
 29 28  1  0  0  0  0
 30 28  1  0  0  0  0
 31 30  1  0  0  0  0
 32 30  2  0  0  0  0
 32 34  1  0  0  0  0
 33 32  1  0  0  0  0
 34 25  1  0  0  0  0
 35 34  2  0  0  0  0
 36 35  1  0  0  0  0
 37 35  1  0  0  0  0
 37 39  2  0  0  0  0
 38 37  1  0  0  0  0
 39  7  1  0  0  0  0
  1  5  1  0  0  0  0
  5 40  1  0  0  0  0
 41 44  1  0  0  0  0
 44 45  2  0  0  0  0
 42 45  1  0  0  0  0
 42 46  2  0  0  0  0
 43 46  1  0  0  0  0
 41 43  2  0  0  0  0
 45 47  1  0  0  0  0
 46 48  1  0  0  0  0
 42 49  1  0  0  0  0
 50 51  1  0  0  0  0
 50 52  1  0  0  0  0
 50 53  1  0  0  0  0
 43 50  1  0  0  0  0
 54 55  1  0  0  0  0
 54 56  1  0  0  0  0
 54 57  1  0  0  0  0
 44 54  1  0  0  0  0
 40 41  1  0  0  0  0
 59 60  1  0  0  0  0
 59 61  1  0  0  0  0
 59 62  1  0  0  0  0
 58 59  1  0  0  0  0
  1 58  1  0  0  0  0
M  END
> <PM6_ENERGY>
-358.228

> <UID>
PKPHKNXXCIHSGU-CETHYRTCNA-L

> <FITNESS>
1.13833

> <GCODE>
20219

> <GraphENC>
20219 72_1_0,82_67_1,111_50_1,85_64_1,269423_52_1,444199_38_1, 72_0_82_0_SINGLE_Xlig:0_Xlig:1,72_2_111_1_SINGLE_scaff:0_MPhosphite:1,72_1_85_0_SINGLE_Xlig:0_Xlig:1,111_0_269423_0_SINGLE_LPhosphiteSubO:0_LPhosphiteSubO:1,269423_1_444199_0_SINGLE_OPhosphiteSub:1_SubArL:1, 

> <GraphJson>
{
  "graphId": 20219,
  "gVertices": [
    {
      "lstAPs": [
        {
          "id": 547691,
          "atomPositionNumber": 0,
          "atomPositionNumberInMol": 0,
          "apClass": {
            "rule": "Xlig",
            "subClass": 0,
            "bndTyp": "SINGLE"
          },
          "dirVec": {
            "x": -2.3339,
            "y": -0.0087,
            "z": 0.8172
          }
        },
        {
          "id": 547692,
          "atomPositionNumber": 0,
          "atomPositionNumberInMol": 0,
          "apClass": {
            "rule": "Xlig",
            "subClass": 0,
            "bndTyp": "SINGLE"
          },
          "dirVec": {
            "x": 2.336,
            "y": -5.0E-4,
            "z": 0.829
          }
        },
        {
          "id": 547693,
          "atomPositionNumber": 0,
          "atomPositionNumberInMol": 0,
          "apClass": {
            "rule": "scaff",
            "subClass": 0,
            "bndTyp": "SINGLE"
          },
          "dirVec": {
            "x": -0.0095,
            "y": 0.0046,
            "z": -1.7113
          }
        }
      ],
      "lstSymAPs": [
        {
          "symIds": [
            0,
            1
          ]
        }
      ],
      "mol": {
        "atoms": [
          {
            "elSymbol": "Pt",
            "p3d": {
              "x": -0.0098,
              "y": 0.0049,
              "z": 0.6289
            }
          },
          {
            "elSymbol": "C",
            "p3d": {
              "x": -6.0E-4,
              "y": 0.0016,
              "z": 2.5609
            }
          },
          {
            "elSymbol": "O",
            "p3d": {
              "x": 0.0025,
              "y": -0.0041,
              "z": 3.6974
            }
          },
          {
            "elSymbol": "Du",
            "p3d": {
              "x": -0.007,
              "y": 1.0013,
              "z": 0.6372
            }
          },
          {
            "elSymbol": "Du",
            "p3d": {
              "x": -0.0014,
              "y": 0.9902,
              "z": 2.5698
            }
          }
        ],
        "bonds": [
          {
            "atomIds": [
              1,
              2
            ],
            "bo": "TRIPLE"
          },
          {
            "atomIds": [
              0,
              1
            ],
            "bo": "SINGLE"
          },
          {
            "atomIds": [
              3,
              0
            ],
            "bo": "SINGLE"
          },
          {
            "atomIds": [
              4,
              1
            ],
            "bo": "SINGLE"
          }
        ]
      },
      "vertexId": 72,
      "buildingBlockId": 0,
      "buildingBlockType": "SCAFFOLD",
      "isRCV": false,
      "properties": {
        "ATTACHMENT_POINTS": "1#Xlig:0:SINGLE:-2.3339%-0.0087%0.8172,Xlig:0:SINGLE:2.3360%-0.0005%0.8290,scaff:0:SINGLE:-0.0095%0.0046%-1.7113 "
      },
      "uniquefyingPropertyKeys": [],
      "allowedMutationTypes": [
        "DELETE",
        "EXTEND",
        "CHANGEBRANCH",
        "CHANGELINK",
        "ADDLINK",
        "DELETELINK",
        "DELETECHAIN"
      ],
      "vertexType": "MolecularFragment"
    },
    {
      "lstAPs": [
        {
          "id": 547694,
          "atomPositionNumber": 0,
          "atomPositionNumberInMol": 5,
          "apClass": {
            "rule": "Xlig",
            "subClass": 1,
            "bndTyp": "SINGLE"
          },
          "dirVec": {
            "x": -0.0053,
            "y": -0.0027,
            "z": 0.63
          }
        }
      ],
      "lstSymAPs": [],
      "mol": {
        "atoms": [
          {
            "elSymbol": "Cl",
            "p3d": {
              "x": 2.3243,
              "y": -0.0063,
              "z": 0.8189
            }
          }
        ],
        "bonds": []
      },
      "vertexId": 82,
      "buildingBlockId": 66,
      "buildingBlockType": "FRAGMENT",
      "isRCV": false,
      "properties": {
        "ATTACHMENT_POINTS": "1#Xlig:1:SINGLE:-0.0053%-0.0027%0.6300 "
      },
      "uniquefyingPropertyKeys": [],
      "allowedMutationTypes": [
        "DELETE",
        "EXTEND",
        "CHANGEBRANCH",
        "CHANGELINK",
        "ADDLINK",
        "DELETELINK",
        "DELETECHAIN"
      ],
      "vertexType": "MolecularFragment"
    },
    {
      "lstAPs": [
        {
          "id": 547695,
          "atomPositionNumber": 0,
          "atomPositionNumberInMol": 6,
          "apClass": {
            "rule": "LPhosphiteSubO",
            "subClass": 0,
            "bndTyp": "SINGLE"
          },
          "dirVec": {
            "x": 7.8978,
            "y": 2.2953,
            "z": -1.0004
          }
        },
        {
          "id": 547696,
          "atomPositionNumber": 0,
          "atomPositionNumberInMol": 6,
          "apClass": {
            "rule": "MPhosphite",
            "subClass": 1,
            "bndTyp": "SINGLE"
          },
          "dirVec": {
            "x": 8.1055,
            "y": 3.5873,
            "z": 1.9978
          }
        }
      ],
      "lstSymAPs": [],
      "mol": {
        "atoms": [
          {
            "elSymbol": "P",
            "p3d": {
              "x": 7.9084,
              "y": 1.9754,
              "z": 0.5292
            }
          },
          {
            "elSymbol": "O",
            "p3d": {
              "x": 9.0676,
              "y": 0.8826,
              "z": 0.4629
            }
          },
          {
            "elSymbol": "O",
            "p3d": {
              "x": 6.6295,
              "y": 1.0833,
              "z": 0.8378
            }
          },
          {
            "elSymbol": "C",
            "p3d": {
              "x": 9.1253,
              "y": -0.1058,
              "z": 1.5323
            }
          },
          {
            "elSymbol": "C",
            "p3d": {
              "x": 10.1483,
              "y": 0.0879,
              "z": 2.4774
            }
          },
          {
            "elSymbol": "H",
            "p3d": {
              "x": 10.8506,
              "y": 0.9254,
              "z": 2.3567
            }
          },
          {
            "elSymbol": "C",
            "p3d": {
              "x": 10.266,
              "y": -0.7624,
              "z": 3.5022
            }
          },
          {
            "elSymbol": "H",
            "p3d": {
              "x": 11.0535,
              "y": -0.661,
              "z": 4.2292
            }
          },
          {
            "elSymbol": "C",
            "p3d": {
              "x": 9.3117,
              "y": -1.8292,
              "z": 3.6241
            }
          },
          {
            "elSymbol": "C",
            "p3d": {
              "x": 9.3872,
              "y": -2.7418,
              "z": 4.7564
            }
          },
          {
            "elSymbol": "H",
            "p3d": {
              "x": 10.1945,
              "y": -2.6628,
              "z": 5.4815
            }
          },
          {
            "elSymbol": "C",
            "p3d": {
              "x": 8.4129,
              "y": -3.6623,
              "z": 4.9017
            }
          },
          {
            "elSymbol": "H",
            "p3d": {
              "x": 8.4465,
              "y": -4.3006,
              "z": 5.782
            }
          },
          {
            "elSymbol": "C",
            "p3d": {
              "x": 7.4123,
              "y": -3.8689,
              "z": 3.9886
            }
          },
          {
            "elSymbol": "H",
            "p3d": {
              "x": 6.6644,
              "y": -4.6462,
              "z": 4.1245
            }
          },
          {
            "elSymbol": "C",
            "p3d": {
              "x": 7.362,
              "y": -2.9904,
              "z": 2.8379
            }
          },
          {
            "elSymbol": "H",
            "p3d": {
              "x": 6.5752,
              "y": -3.1171,
              "z": 2.102
            }
          },
          {
            "elSymbol": "C",
            "p3d": {
              "x": 8.2931,
              "y": -2.0283,
              "z": 2.6386
            }
          },
          {
            "elSymbol": "C",
            "p3d": {
              "x": 8.2222,
              "y": -1.1106,
              "z": 1.5036
            }
          },
          {
            "elSymbol": "C",
            "p3d": {
              "x": 7.2264,
              "y": -1.2173,
              "z": 0.4606
            }
          },
          {
            "elSymbol": "C",
            "p3d": {
              "x": 7.0184,
              "y": -2.412,
              "z": -0.3736
            }
          },
          {
            "elSymbol": "C",
            "p3d": {
              "x": 7.8626,
              "y": -3.5428,
              "z": -0.2234
            }
          },
          {
            "elSymbol": "H",
            "p3d": {
              "x": 8.6354,
              "y": -3.5405,
              "z": 0.5507
            }
          },
          {
            "elSymbol": "C",
            "p3d": {
              "x": 7.682,
              "y": -4.6511,
              "z": -1.0479
            }
          },
          {
            "elSymbol": "H",
            "p3d": {
              "x": 8.311,
              "y": -5.5242,
              "z": -0.9425
            }
          },
          {
            "elSymbol": "C",
            "p3d": {
              "x": 6.7355,
              "y": -4.6351,
              "z": -2.0117
            }
          },
          {
            "elSymbol": "H",
            "p3d": {
              "x": 6.5863,
              "y": -5.522,
              "z": -2.6583
            }
          },
          {
            "elSymbol": "C",
            "p3d": {
              "x": 5.9066,
              "y": -3.5062,
              "z": -2.2127
            }
          },
          {
            "elSymbol": "H",
            "p3d": {
              "x": 5.1559,
              "y": -3.5321,
              "z": -3.0139
            }
          },
          {
            "elSymbol": "C",
            "p3d": {
              "x": 6.0185,
              "y": -2.3785,
              "z": -1.4005
            }
          },
          {
            "elSymbol": "C",
            "p3d": {
              "x": 5.2406,
              "y": -1.2493,
              "z": -1.6114
            }
          },
          {
            "elSymbol": "H",
            "p3d": {
              "x": 4.4697,
              "y": -1.2606,
              "z": -2.3785
            }
          },
          {
            "elSymbol": "C",
            "p3d": {
              "x": 5.4446,
              "y": -0.1476,
              "z": -0.8639
            }
          },
          {
            "elSymbol": "H",
            "p3d": {
              "x": 4.8409,
              "y": 0.7494,
              "z": -1.0205
            }
          },
          {
            "elSymbol": "C",
            "p3d": {
              "x": 6.4251,
              "y": -0.1479,
              "z": 0.1006
            }
          }
        ],
        "bonds": [
          {
            "atomIds": [
              1,
              0
            ],
            "bo": "SINGLE"
          },
          {
            "atomIds": [
              2,
              0
            ],
            "bo": "SINGLE"
          },
          {
            "atomIds": [
              3,
              1
            ],
            "bo": "SINGLE"
          },
          {
            "atomIds": [
              4,
              3
            ],
            "bo": "DOUBLE"
          },
          {
            "atomIds": [
              5,
              4
            ],
            "bo": "SINGLE"
          },
          {
            "atomIds": [
              6,
              4
            ],
            "bo": "SINGLE"
          },
          {
            "atomIds": [
              7,
              6
            ],
            "bo": "SINGLE"
          },
          {
            "atomIds": [
              8,
              6
            ],
            "bo": "DOUBLE"
          },
          {
            "atomIds": [
              9,
              8
            ],
            "bo": "SINGLE"
          },
          {
            "atomIds": [
              10,
              9
            ],
            "bo": "SINGLE"
          },
          {
            "atomIds": [
              11,
              9
            ],
            "bo": "DOUBLE"
          },
          {
            "atomIds": [
              12,
              11
            ],
            "bo": "SINGLE"
          },
          {
            "atomIds": [
              13,
              11
            ],
            "bo": "SINGLE"
          },
          {
            "atomIds": [
              14,
              13
            ],
            "bo": "SINGLE"
          },
          {
            "atomIds": [
              15,
              13
            ],
            "bo": "DOUBLE"
          },
          {
            "atomIds": [
              15,
              17
            ],
            "bo": "SINGLE"
          },
          {
            "atomIds": [
              16,
              15
            ],
            "bo": "SINGLE"
          },
          {
            "atomIds": [
              17,
              8
            ],
            "bo": "SINGLE"
          },
          {
            "atomIds": [
              17,
              18
            ],
            "bo": "DOUBLE"
          },
          {
            "atomIds": [
              18,
              3
            ],
            "bo": "SINGLE"
          },
          {
            "atomIds": [
              19,
              18
            ],
            "bo": "SINGLE"
          },
          {
            "atomIds": [
              19,
              34
            ],
            "bo": "SINGLE"
          },
          {
            "atomIds": [
              20,
              19
            ],
            "bo": "DOUBLE"
          },
          {
            "atomIds": [
              21,
              20
            ],
            "bo": "SINGLE"
          },
          {
            "atomIds": [
              22,
              21
            ],
            "bo": "SINGLE"
          },
          {
            "atomIds": [
              23,
              21
            ],
            "bo": "DOUBLE"
          },
          {
            "atomIds": [
              24,
              23
            ],
            "bo": "SINGLE"
          },
          {
            "atomIds": [
              25,
              23
            ],
            "bo": "SINGLE"
          },
          {
            "atomIds": [
              26,
              25
            ],
            "bo": "SINGLE"
          },
          {
            "atomIds": [
              27,
              25
            ],
            "bo": "DOUBLE"
          },
          {
            "atomIds": [
              27,
              29
            ],
            "bo": "SINGLE"
          },
          {
            "atomIds": [
              28,
              27
            ],
            "bo": "SINGLE"
          },
          {
            "atomIds": [
              29,
              20
            ],
            "bo": "SINGLE"
          },
          {
            "atomIds": [
              30,
              29
            ],
            "bo": "DOUBLE"
          },
          {
            "atomIds": [
              31,
              30
            ],
            "bo": "SINGLE"
          },
          {
            "atomIds": [
              32,
              30
            ],
            "bo": "SINGLE"
          },
          {
            "atomIds": [
              32,
              34
            ],
            "bo": "DOUBLE"
          },
          {
            "atomIds": [
              33,
              32
            ],
            "bo": "SINGLE"
          },
          {
            "atomIds": [
              34,
              2
            ],
            "bo": "SINGLE"
          }
        ]
      },
      "vertexId": 111,
      "buildingBlockId": 49,
      "buildingBlockType": "FRAGMENT",
      "isRCV": false,
      "properties": {
        "ATTACHMENT_POINTS": "1#LPhosphiteSubO:0:SINGLE:7.8978%2.2953%-1.0004,MPhosphite:1:SINGLE:8.1055%3.5873%1.9978 "
      },
      "uniquefyingPropertyKeys": [],
      "allowedMutationTypes": [
        "DELETE",
        "EXTEND",
        "CHANGEBRANCH",
        "CHANGELINK",
        "ADDLINK",
        "DELETELINK",
        "DELETECHAIN"
      ],
      "vertexType": "MolecularFragment"
    },
    {
      "lstAPs": [
        {
          "id": 547697,
          "atomPositionNumber": 0,
          "atomPositionNumberInMol": 59,
          "apClass": {
            "rule": "Xlig",
            "subClass": 1,
            "bndTyp": "SINGLE"
          },
          "dirVec": {
            "x": -0.102,
            "y": 0.0185,
            "z": -1.0265
          }
        }
      ],
      "lstSymAPs": [],
      "mol": {
        "atoms": [
          {
            "elSymbol": "S",
            "p3d": {
              "x": -0.3267,
              "y": 2.3403,
              "z": -1.0022
            }
          },
          {
            "elSymbol": "C",
            "p3d": {
              "x": -0.626,
              "y": 2.4866,
              "z": 0.7805
            }
          },
          {
            "elSymbol": "H",
            "p3d": {
              "x": 0.1766,
              "y": 3.089,
              "z": 1.2414
            }
          },
          {
            "elSymbol": "H",
            "p3d": {
              "x": -0.651,
              "y": 1.5065,
              "z": 1.2643
            }
          },
          {
            "elSymbol": "H",
            "p3d": {
              "x": -1.5658,
              "y": 2.981,
              "z": 0.9515
            }
          }
        ],
        "bonds": [
          {
            "atomIds": [
              1,
              2
            ],
            "bo": "SINGLE"
          },
          {
            "atomIds": [
              1,
              3
            ],
            "bo": "SINGLE"
          },
          {
            "atomIds": [
              1,
              4
            ],
            "bo": "SINGLE"
          },
          {
            "atomIds": [
              0,
              1
            ],
            "bo": "SINGLE"
          }
        ]
      },
      "vertexId": 85,
      "buildingBlockId": 63,
      "buildingBlockType": "FRAGMENT",
      "isRCV": false,
      "properties": {
        "ATTACHMENT_POINTS": "1#Xlig:1:SINGLE:-0.1020%0.0185%-1.0265 "
      },
      "uniquefyingPropertyKeys": [],
      "allowedMutationTypes": [
        "DELETE",
        "EXTEND",
        "CHANGEBRANCH",
        "CHANGELINK",
        "ADDLINK",
        "DELETELINK",
        "DELETECHAIN"
      ],
      "vertexType": "MolecularFragment"
    },
    {
      "lstAPs": [
        {
          "id": 547698,
          "atomPositionNumber": 0,
          "atomPositionNumberInMol": 41,
          "apClass": {
            "rule": "LPhosphiteSubO",
            "subClass": 1,
            "bndTyp": "SINGLE"
          },
          "dirVec": {
            "x": 0.7035,
            "y": 2.9119,
            "z": 2.8175
          }
        },
        {
          "id": 547699,
          "atomPositionNumber": 0,
          "atomPositionNumberInMol": 41,
          "apClass": {
            "rule": "OPhosphiteSub",
            "subClass": 1,
            "bndTyp": "SINGLE"
          },
          "dirVec": {
            "x": 0.0564,
            "y": 5.2897,
            "z": 1.9394
          }
        }
      ],
      "lstSymAPs": [],
      "mol": {
        "atoms": [
          {
            "elSymbol": "O",
            "p3d": {
              "x": -0.1418,
              "y": 4.2412,
              "z": 2.9314
            }
          }
        ],
        "bonds": []
      },
      "vertexId": 269423,
      "buildingBlockId": 51,
      "buildingBlockType": "FRAGMENT",
      "isRCV": false,
      "properties": {
        "ATTACHMENT_POINTS": "1#LPhosphiteSubO:1:SINGLE:0.7035%2.9119%2.8175,OPhosphiteSub:1:SINGLE:0.0564%5.2897%1.9394 "
      },
      "uniquefyingPropertyKeys": [],
      "allowedMutationTypes": [
        "DELETE",
        "EXTEND",
        "CHANGEBRANCH",
        "CHANGELINK",
        "ADDLINK",
        "DELETELINK",
        "DELETECHAIN"
      ],
      "vertexType": "MolecularFragment"
    },
    {
      "lstAPs": [
        {
          "id": 547730,
          "atomPositionNumber": 0,
          "atomPositionNumberInMol": 42,
          "apClass": {
            "rule": "SubArL",
            "subClass": 1,
            "bndTyp": "SINGLE"
          },
          "dirVec": {
            "x": 0.2957,
            "y": 0.3816,
            "z": -0.6358
          }
        }
      ],
      "lstSymAPs": [],
      "mol": {
        "atoms": [
          {
            "elSymbol": "C",
            "p3d": {
              "x": 1.7088,
              "y": 0.551,
              "z": -1.2192
            }
          },
          {
            "elSymbol": "C",
            "p3d": {
              "x": 4.2535,
              "y": 0.8673,
              "z": -2.2548
            }
          },
          {
            "elSymbol": "C",
            "p3d": {
              "x": 2.3329,
              "y": 1.7979,
              "z": -1.1377
            }
          },
          {
            "elSymbol": "C",
            "p3d": {
              "x": 2.3315,
              "y": -0.5114,
              "z": -1.8171
            }
          },
          {
            "elSymbol": "C",
            "p3d": {
              "x": 3.6062,
              "y": -0.3595,
              "z": -2.3299
            }
          },
          {
            "elSymbol": "C",
            "p3d": {
              "x": 3.6205,
              "y": 1.9526,
              "z": -1.657
            }
          },
          {
            "elSymbol": "H",
            "p3d": {
              "x": 4.116,
              "y": -1.2062,
              "z": -2.8187
            }
          },
          {
            "elSymbol": "H",
            "p3d": {
              "x": 4.1193,
              "y": 2.9144,
              "z": -1.5883
            }
          },
          {
            "elSymbol": "H",
            "p3d": {
              "x": 5.2485,
              "y": 0.9961,
              "z": -2.6688
            }
          },
          {
            "elSymbol": "C",
            "p3d": {
              "x": 1.6389,
              "y": 2.9732,
              "z": -0.4581
            }
          },
          {
            "elSymbol": "H",
            "p3d": {
              "x": 2.3787,
              "y": 3.6649,
              "z": -0.0604
            }
          },
          {
            "elSymbol": "H",
            "p3d": {
              "x": 1.0049,
              "y": 2.601,
              "z": 0.3676
            }
          },
          {
            "elSymbol": "H",
            "p3d": {
              "x": 1.0013,
              "y": 3.4961,
              "z": -1.199
            }
          },
          {
            "elSymbol": "C",
            "p3d": {
              "x": 1.6397,
              "y": -1.8757,
              "z": -1.9164
            }
          },
          {
            "elSymbol": "H",
            "p3d": {
              "x": 2.3747,
              "y": -2.6603,
              "z": -1.9613
            }
          },
          {
            "elSymbol": "H",
            "p3d": {
              "x": 1.0044,
              "y": -1.9015,
              "z": -2.8054
            }
          },
          {
            "elSymbol": "H",
            "p3d": {
              "x": 1.0057,
              "y": -2.0243,
              "z": -1.0149
            }
          }
        ],
        "bonds": [
          {
            "atomIds": [
              0,
              3
            ],
            "bo": "SINGLE"
          },
          {
            "atomIds": [
              3,
              4
            ],
            "bo": "DOUBLE"
          },
          {
            "atomIds": [
              1,
              4
            ],
            "bo": "SINGLE"
          },
          {
            "atomIds": [
              1,
              5
            ],
            "bo": "DOUBLE"
          },
          {
            "atomIds": [
              2,
              5
            ],
            "bo": "SINGLE"
          },
          {
            "atomIds": [
              0,
              2
            ],
            "bo": "DOUBLE"
          },
          {
            "atomIds": [
              4,
              6
            ],
            "bo": "SINGLE"
          },
          {
            "atomIds": [
              5,
              7
            ],
            "bo": "SINGLE"
          },
          {
            "atomIds": [
              1,
              8
            ],
            "bo": "SINGLE"
          },
          {
            "atomIds": [
              9,
              10
            ],
            "bo": "SINGLE"
          },
          {
            "atomIds": [
              9,
              11
            ],
            "bo": "SINGLE"
          },
          {
            "atomIds": [
              9,
              12
            ],
            "bo": "SINGLE"
          },
          {
            "atomIds": [
              2,
              9
            ],
            "bo": "SINGLE"
          },
          {
            "atomIds": [
              13,
              14
            ],
            "bo": "SINGLE"
          },
          {
            "atomIds": [
              13,
              15
            ],
            "bo": "SINGLE"
          },
          {
            "atomIds": [
              13,
              16
            ],
            "bo": "SINGLE"
          },
          {
            "atomIds": [
              3,
              13
            ],
            "bo": "SINGLE"
          }
        ]
      },
      "vertexId": 444199,
      "buildingBlockId": 37,
      "buildingBlockType": "FRAGMENT",
      "isRCV": false,
      "properties": {
        "ATTACHMENT_POINTS": "1#SubArL:1:SINGLE:0.2957%0.3816%-0.6358 "
      },
      "uniquefyingPropertyKeys": [],
      "allowedMutationTypes": [
        "DELETE",
        "EXTEND",
        "CHANGEBRANCH",
        "CHANGELINK",
        "ADDLINK",
        "DELETELINK",
        "DELETECHAIN"
      ],
      "vertexType": "MolecularFragment"
    }
  ],
  "gEdges": [
    {
      "srcAPID": 547691,
      "trgAPID": 547694,
      "bondType": "SINGLE"
    },
    {
      "srcAPID": 547693,
      "trgAPID": 547696,
      "bondType": "SINGLE"
    },
    {
      "srcAPID": 547692,
      "trgAPID": 547697,
      "bondType": "SINGLE"
    },
    {
      "srcAPID": 547695,
      "trgAPID": 547698,
      "bondType": "SINGLE"
    },
    {
      "srcAPID": 547699,
      "trgAPID": 547730,
      "bondType": "SINGLE"
    }
  ],
  "gRings": [],
  "symVertices": []
}

> <SMILES>
[Pt](C#O)(Cl)([P]1(OC2=C([H])C([H])=C3C([H])=C([H])C([H])=C(C3=C2C=4C(=C(C(=C5C(=C(C(=C(C45)[H])[H])[H])[H])[H])[H])O1)[H])OC=6C(=C(C(=C(C6C([H])([H])[H])[H])[H])[H])C([H])([H])[H])SC([H])([H])[H]

$$$$
