M00003936
  CDK     04222210073D

 51 51  0  0  0  0  0  0  0  0999 V2000
   -0.1082    2.6193    0.3520 Pt  0  0  0  0  0  0  0  0  0  0  0  0
   -0.0777    4.5151    0.6104 C   0  0  0  0  0  0  0  0  0  0  0  0
   -0.0794    5.6502    0.7729 O   0  0  0  0  0  0  0  0  0  0  0  0
    1.9546    2.4700    0.2858 O   0  0  0  0  0  0  0  0  0  0  0  0
    2.5384    2.6918    1.5420 C   0  0  0  0  0  0  0  0  0  0  0  0
    3.6036    2.4427    1.4295 H   0  0  0  0  0  0  0  0  0  0  0  0
    2.0750    2.0424    2.2959 H   0  0  0  0  0  0  0  0  0  0  0  0
    2.4305    3.7479    1.8224 H   0  0  0  0  0  0  0  0  0  0  0  0
   -0.0992   -0.0786   -1.0610 N   0  0  0  0  0  0  0  0  0  0  0  0
   -0.3570   -0.2490    1.1635 N   0  0  0  0  0  0  0  0  0  0  0  0
   -0.1989    0.6083    0.1129 C   0  0  1  0  0  0  0  0  0  0  0  0
   -0.1319   -1.5819   -0.8398 C   0  0  0  0  0  0  0  0  0  0  0  0
   -0.3367   -1.6739    0.7157 C   0  0  0  0  0  0  0  0  0  0  0  0
    0.4875   -2.2251    1.2107 H   0  0  0  0  0  0  0  0  0  0  0  0
   -1.2892   -2.1741    0.9834 H   0  0  0  0  0  0  0  0  0  0  0  0
    1.0216    1.7297   -2.3475 C   0  0  0  0  0  0  0  0  0  0  0  0
    0.0290    0.5686   -2.4067 C   0  0  0  0  0  0  0  0  0  0  0  0
   -1.3500    1.0444   -2.8744 C   0  0  0  0  0  0  0  0  0  0  0  0
   -2.0667    0.2238   -2.9793 H   0  0  0  0  0  0  0  0  0  0  0  0
   -1.2811    1.5522   -3.8437 H   0  0  0  0  0  0  0  0  0  0  0  0
   -1.7953    1.7642   -2.1679 H   0  0  0  0  0  0  0  0  0  0  0  0
    0.5644    2.6658   -1.9776 H   0  0  0  0  0  0  0  0  0  0  0  0
    1.8794    1.5310   -1.6743 H   0  0  0  0  0  0  0  0  0  0  0  0
    1.4366    1.9466   -3.3376 H   0  0  0  0  0  0  0  0  0  0  0  0
    0.4175   -0.2209   -3.1045 H   0  0  0  0  0  0  0  0  0  0  0  0
   -1.5338   -3.6687   -1.3553 C   0  0  0  0  0  0  0  0  0  0  0  0
   -1.3361   -2.1779   -1.6019 C   0  0  0  0  0  0  0  0  0  0  0  0
   -1.6840   -3.8988   -0.2941 H   0  0  0  0  0  0  0  0  0  0  0  0
   -2.4211   -4.0346   -1.8897 H   0  0  0  0  0  0  0  0  0  0  0  0
   -0.6812   -4.2626   -1.7062 H   0  0  0  0  0  0  0  0  0  0  0  0
   -1.2157   -1.9972   -2.6896 H   0  0  0  0  0  0  0  0  0  0  0  0
   -2.2586   -1.6273   -1.3157 H   0  0  0  0  0  0  0  0  0  0  0  0
    2.4347   -1.6301   -0.6402 C   0  0  0  0  0  0  0  0  0  0  0  0
    1.1943   -2.2238   -1.2969 C   0  0  0  0  0  0  0  0  0  0  0  0
    2.4436   -1.7804    0.4452 H   0  0  0  0  0  0  0  0  0  0  0  0
    3.3488   -2.0816   -1.0429 H   0  0  0  0  0  0  0  0  0  0  0  0
    2.5090   -0.5443   -0.8078 H   0  0  0  0  0  0  0  0  0  0  0  0
    1.2841   -2.1328   -2.3991 H   0  0  0  0  0  0  0  0  0  0  0  0
    1.1504   -3.3137   -1.0947 H   0  0  0  0  0  0  0  0  0  0  0  0
    0.4908   -0.4852    3.4822 C   0  0  0  0  0  0  0  0  0  0  0  0
   -0.5412    0.1916    2.5782 C   0  0  0  0  0  0  0  0  0  0  0  0
   -1.9744   -0.0946    3.0284 C   0  0  0  0  0  0  0  0  0  0  0  0
   -2.2103   -1.1629    3.0461 H   0  0  0  0  0  0  0  0  0  0  0  0
   -2.7073    0.3923    2.3643 H   0  0  0  0  0  0  0  0  0  0  0  0
   -2.1542    0.2969    4.0372 H   0  0  0  0  0  0  0  0  0  0  0  0
    0.3167   -1.5618    3.5858 H   0  0  0  0  0  0  0  0  0  0  0  0
    1.5127   -0.3494    3.1047 H   0  0  0  0  0  0  0  0  0  0  0  0
    0.4573   -0.0578    4.4926 H   0  0  0  0  0  0  0  0  0  0  0  0
   -0.3688    1.3129    2.5806 H   0  0  0  0  0  0  0  0  0  0  0  0
   -2.0832    2.6516    0.3490 C   0  0  0  0  0  0  0  0  0  0  0  0
   -3.2392    2.6297    0.3568 N   0  0  0  0  0  0  0  0  0  0  0  0
  2  3  3  0  0  0  0
  1  2  1  0  0  0  0
  5  6  1  0  0  0  0
  5  7  1  0  0  0  0
  5  8  1  0  0  0  0
  4  5  1  0  0  0  0
  1  4  1  0  0  0  0
  9 11  1  0  0  0  0
 10 11  1  0  0  0  0
 12  9  1  0  0  0  0
 12 13  1  0  0  0  0
 13 10  1  0  0  0  0
 14 13  1  0  0  0  0
 15 13  1  0  0  0  0
  1 11  1  0  0  0  0
 16 17  1  0  0  0  0
 17 18  1  0  0  0  0
 18 19  1  0  0  0  0
 18 20  1  0  0  0  0
 18 21  1  0  0  0  0
 16 22  1  0  0  0  0
 16 23  1  0  0  0  0
 16 24  1  0  0  0  0
 17 25  1  0  0  0  0
  9 17  1  0  0  0  0
 26 27  1  0  0  0  0
 26 28  1  0  0  0  0
 26 29  1  0  0  0  0
 26 30  1  0  0  0  0
 27 31  1  0  0  0  0
 27 32  1  0  0  0  0
 12 27  1  0  0  0  0
 33 34  1  0  0  0  0
 33 35  1  0  0  0  0
 33 36  1  0  0  0  0
 33 37  1  0  0  0  0
 34 38  1  0  0  0  0
 34 39  1  0  0  0  0
 12 34  1  0  0  0  0
 40 41  1  0  0  0  0
 41 42  1  0  0  0  0
 42 43  1  0  0  0  0
 42 44  1  0  0  0  0
 42 45  1  0  0  0  0
 40 46  1  0  0  0  0
 40 47  1  0  0  0  0
 40 48  1  0  0  0  0
 41 49  1  0  0  0  0
 10 41  1  0  0  0  0
 50 51  3  0  0  0  0
  1 50  1  0  0  0  0
M  END
> <PM6_ENERGY>
-250.997

> <UID>
HTQJTMWPCOGJCV-WHHYQJMPNA-N

> <FITNESS>
1.14667

> <GCODE>
4660

> <GraphENC>
4660 72_1_0,80_65_1,95_17_1,87_66_1,91288_33_1,91456_32_1,91299_32_1,91455_33_1, 72_0_80_0_SINGLE_Xlig:0_Xlig:1,72_2_95_2_SINGLE_scaff:0_MImidazolidinylidene:1,72_1_87_0_SINGLE_Xlig:0_Xlig:1,95_0_91288_0_SINGLE_LImidazolidinylideneSubNL:0_SubRM:1,95_4_91456_0_SINGLE_LImidazolidinylideneSubCS:0_SubRS:1,95_3_91299_0_SINGLE_LImidazolidinylideneSubCS:0_SubRS:1,95_1_91455_0_SINGLE_LImidazolidinylideneSubNL:0_SubRM:1, SymmetricSet [symIds=[91288, 91455]] SymmetricSet [symIds=[91456, 91299]] 

> <GraphJson>
{
  "graphId": 4660,
  "gVertices": [
    {
      "lstAPs": [
        {
          "id": 120472,
          "atomPositionNumber": 0,
          "atomPositionNumberInMol": 0,
          "apClass": {
            "rule": "Xlig",
            "subClass": 0,
            "bndTyp": "SINGLE"
          },
          "dirVec": {
            "x": -2.3339,
            "y": -0.0087,
            "z": 0.8172
          }
        },
        {
          "id": 120473,
          "atomPositionNumber": 0,
          "atomPositionNumberInMol": 0,
          "apClass": {
            "rule": "Xlig",
            "subClass": 0,
            "bndTyp": "SINGLE"
          },
          "dirVec": {
            "x": 2.336,
            "y": -5.0E-4,
            "z": 0.829
          }
        },
        {
          "id": 120474,
          "atomPositionNumber": 0,
          "atomPositionNumberInMol": 0,
          "apClass": {
            "rule": "scaff",
            "subClass": 0,
            "bndTyp": "SINGLE"
          },
          "dirVec": {
            "x": -0.0095,
            "y": 0.0046,
            "z": -1.7113
          }
        }
      ],
      "lstSymAPs": [
        {
          "symIds": [
            0,
            1
          ]
        }
      ],
      "mol": {
        "atoms": [
          {
            "elSymbol": "Pt",
            "p3d": {
              "x": -0.0098,
              "y": 0.0049,
              "z": 0.6289
            }
          },
          {
            "elSymbol": "C",
            "p3d": {
              "x": -6.0E-4,
              "y": 0.0016,
              "z": 2.5609
            }
          },
          {
            "elSymbol": "O",
            "p3d": {
              "x": 0.0025,
              "y": -0.0041,
              "z": 3.6974
            }
          },
          {
            "elSymbol": "Du",
            "p3d": {
              "x": -0.007,
              "y": 1.0013,
              "z": 0.6372
            }
          },
          {
            "elSymbol": "Du",
            "p3d": {
              "x": -0.0014,
              "y": 0.9902,
              "z": 2.5698
            }
          }
        ],
        "bonds": [
          {
            "atomIds": [
              1,
              2
            ],
            "bo": "TRIPLE"
          },
          {
            "atomIds": [
              0,
              1
            ],
            "bo": "SINGLE"
          },
          {
            "atomIds": [
              3,
              0
            ],
            "bo": "SINGLE"
          },
          {
            "atomIds": [
              4,
              1
            ],
            "bo": "SINGLE"
          }
        ]
      },
      "vertexId": 72,
      "buildingBlockId": 0,
      "buildingBlockType": "SCAFFOLD",
      "isRCV": false,
      "properties": {
        "ATTACHMENT_POINTS": "1#Xlig:0:SINGLE:-2.3339%-0.0087%0.8172,Xlig:0:SINGLE:2.3360%-0.0005%0.8290,scaff:0:SINGLE:-0.0095%0.0046%-1.7113 "
      },
      "uniquefyingPropertyKeys": [],
      "allowedMutationTypes": [
        "DELETE",
        "EXTEND",
        "CHANGEBRANCH",
        "CHANGELINK",
        "ADDLINK",
        "DELETELINK",
        "DELETECHAIN"
      ],
      "vertexType": "MolecularFragment"
    },
    {
      "lstAPs": [
        {
          "id": 120475,
          "atomPositionNumber": 0,
          "atomPositionNumberInMol": 5,
          "apClass": {
            "rule": "Xlig",
            "subClass": 1,
            "bndTyp": "SINGLE"
          },
          "dirVec": {
            "x": -0.1753,
            "y": 0.0948,
            "z": -0.4464
          }
        }
      ],
      "lstSymAPs": [],
      "mol": {
        "atoms": [
          {
            "elSymbol": "O",
            "p3d": {
              "x": -0.3534,
              "y": 2.1044,
              "z": -0.7339
            }
          },
          {
            "elSymbol": "C",
            "p3d": {
              "x": -0.5345,
              "y": 2.7646,
              "z": 0.4801
            }
          },
          {
            "elSymbol": "H",
            "p3d": {
              "x": -0.3728,
              "y": 3.8337,
              "z": 0.2724
            }
          },
          {
            "elSymbol": "H",
            "p3d": {
              "x": 0.1816,
              "y": 2.4161,
              "z": 1.2384
            }
          },
          {
            "elSymbol": "H",
            "p3d": {
              "x": -1.553,
              "y": 2.6149,
              "z": 0.8489
            }
          }
        ],
        "bonds": [
          {
            "atomIds": [
              1,
              2
            ],
            "bo": "SINGLE"
          },
          {
            "atomIds": [
              1,
              3
            ],
            "bo": "SINGLE"
          },
          {
            "atomIds": [
              1,
              4
            ],
            "bo": "SINGLE"
          },
          {
            "atomIds": [
              0,
              1
            ],
            "bo": "SINGLE"
          }
        ]
      },
      "vertexId": 80,
      "buildingBlockId": 64,
      "buildingBlockType": "FRAGMENT",
      "isRCV": false,
      "properties": {
        "ATTACHMENT_POINTS": "1#Xlig:1:SINGLE:-0.1753%0.0948%-0.4464 "
      },
      "uniquefyingPropertyKeys": [],
      "allowedMutationTypes": [
        "DELETE",
        "EXTEND",
        "CHANGEBRANCH",
        "CHANGELINK",
        "ADDLINK",
        "DELETELINK",
        "DELETECHAIN"
      ],
      "vertexType": "MolecularFragment"
    },
    {
      "lstAPs": [
        {
          "id": 120476,
          "atomPositionNumber": 0,
          "atomPositionNumberInMol": 10,
          "apClass": {
            "rule": "LImidazolidinylideneSubNL",
            "subClass": 0,
            "bndTyp": "SINGLE"
          },
          "dirVec": {
            "x": 7.7897,
            "y": 6.0821,
            "z": 4.7152
          }
        },
        {
          "id": 120477,
          "atomPositionNumber": 1,
          "atomPositionNumberInMol": 11,
          "apClass": {
            "rule": "LImidazolidinylideneSubNL",
            "subClass": 0,
            "bndTyp": "SINGLE"
          },
          "dirVec": {
            "x": 9.2442,
            "y": 7.4469,
            "z": 0.1412
          }
        },
        {
          "id": 120478,
          "atomPositionNumber": 2,
          "atomPositionNumberInMol": 12,
          "apClass": {
            "rule": "MImidazolidinylidene",
            "subClass": 1,
            "bndTyp": "SINGLE"
          },
          "dirVec": {
            "x": 7.3678,
            "y": 8.8196,
            "z": 2.9474
          }
        },
        {
          "id": 120479,
          "atomPositionNumber": 3,
          "atomPositionNumberInMol": 13,
          "apClass": {
            "rule": "LImidazolidinylideneSubCS",
            "subClass": 0,
            "bndTyp": "SINGLE"
          },
          "dirVec": {
            "x": 8.0114,
            "y": 3.5478,
            "z": 2.786
          }
        },
        {
          "id": 120480,
          "atomPositionNumber": 3,
          "atomPositionNumberInMol": 13,
          "apClass": {
            "rule": "LImidazolidinylideneSubCS",
            "subClass": 0,
            "bndTyp": "SINGLE"
          },
          "dirVec": {
            "x": 10.1821,
            "y": 4.5337,
            "z": 3.5842
          }
        }
      ],
      "lstSymAPs": [
        {
          "symIds": [
            0,
            1
          ]
        },
        {
          "symIds": [
            3,
            4
          ]
        }
      ],
      "mol": {
        "atoms": [
          {
            "elSymbol": "N",
            "p3d": {
              "x": 8.1682,
              "y": 5.9859,
              "z": 3.3103
            }
          },
          {
            "elSymbol": "N",
            "p3d": {
              "x": 8.7358,
              "y": 6.6342,
              "z": 1.2983
            }
          },
          {
            "elSymbol": "C",
            "p3d": {
              "x": 8.1698,
              "y": 7.0264,
              "z": 2.4525
            }
          },
          {
            "elSymbol": "C",
            "p3d": {
              "x": 8.8997,
              "y": 4.8098,
              "z": 2.7919
            }
          },
          {
            "elSymbol": "C",
            "p3d": {
              "x": 9.1818,
              "y": 5.2321,
              "z": 1.3562
            }
          },
          {
            "elSymbol": "H",
            "p3d": {
              "x": 8.6243,
              "y": 4.6089,
              "z": 0.6707
            }
          },
          {
            "elSymbol": "H",
            "p3d": {
              "x": 10.2262,
              "y": 5.1361,
              "z": 1.0989
            }
          }
        ],
        "bonds": [
          {
            "atomIds": [
              0,
              2
            ],
            "bo": "SINGLE"
          },
          {
            "atomIds": [
              1,
              2
            ],
            "bo": "SINGLE"
          },
          {
            "atomIds": [
              3,
              0
            ],
            "bo": "SINGLE"
          },
          {
            "atomIds": [
              3,
              4
            ],
            "bo": "SINGLE"
          },
          {
            "atomIds": [
              4,
              1
            ],
            "bo": "SINGLE"
          },
          {
            "atomIds": [
              5,
              4
            ],
            "bo": "SINGLE"
          },
          {
            "atomIds": [
              6,
              4
            ],
            "bo": "SINGLE"
          }
        ]
      },
      "vertexId": 95,
      "buildingBlockId": 16,
      "buildingBlockType": "FRAGMENT",
      "isRCV": false,
      "properties": {
        "ATTACHMENT_POINTS": "1#LImidazolidinylideneSubNL:0:SINGLE:7.7897%6.0821%4.7152 2#LImidazolidinylideneSubNL:0:SINGLE:9.2442%7.4469%0.1412 3#MImidazolidinylidene:1:SINGLE:7.3678%8.8196%2.9474 4#LImidazolidinylideneSubCS:0:SINGLE:8.0114%3.5478%2.7860,LImidazolidinylideneSubCS:0:SINGLE:10.1821%4.5337%3.5842 "
      },
      "uniquefyingPropertyKeys": [],
      "allowedMutationTypes": [
        "DELETE",
        "EXTEND",
        "CHANGEBRANCH",
        "CHANGELINK",
        "ADDLINK",
        "DELETELINK",
        "DELETECHAIN"
      ],
      "vertexType": "MolecularFragment"
    },
    {
      "lstAPs": [
        {
          "id": 120481,
          "atomPositionNumber": 0,
          "atomPositionNumberInMol": 51,
          "apClass": {
            "rule": "Xlig",
            "subClass": 1,
            "bndTyp": "SINGLE"
          },
          "dirVec": {
            "x": 0.0192,
            "y": -0.0048,
            "z": -0.5645
          }
        }
      ],
      "lstSymAPs": [],
      "mol": {
        "atoms": [
          {
            "elSymbol": "C",
            "p3d": {
              "x": -1.967,
              "y": -0.0075,
              "z": -0.4937
            }
          },
          {
            "elSymbol": "N",
            "p3d": {
              "x": -3.1263,
              "y": -0.0054,
              "z": -0.4354
            }
          },
          {
            "elSymbol": "Du",
            "p3d": {
              "x": -1.9744,
              "y": 0.9926,
              "z": -0.5036
            }
          }
        ],
        "bonds": [
          {
            "atomIds": [
              0,
              1
            ],
            "bo": "TRIPLE"
          },
          {
            "atomIds": [
              2,
              0
            ],
            "bo": "SINGLE"
          }
        ]
      },
      "vertexId": 87,
      "buildingBlockId": 65,
      "buildingBlockType": "FRAGMENT",
      "isRCV": false,
      "properties": {
        "ATTACHMENT_POINTS": "1#Xlig:1:SINGLE:0.0192%-0.0048%-0.5645 "
      },
      "uniquefyingPropertyKeys": [],
      "allowedMutationTypes": [
        "DELETE",
        "EXTEND",
        "CHANGEBRANCH",
        "CHANGELINK",
        "ADDLINK",
        "DELETELINK",
        "DELETECHAIN"
      ],
      "vertexType": "MolecularFragment"
    },
    {
      "lstAPs": [
        {
          "id": 120524,
          "atomPositionNumber": 1,
          "atomPositionNumberInMol": 18,
          "apClass": {
            "rule": "SubRM",
            "subClass": 1,
            "bndTyp": "SINGLE"
          },
          "dirVec": {
            "x": 0.2868,
            "y": 0.385,
            "z": -0.643
          }
        }
      ],
      "lstSymAPs": [],
      "mol": {
        "atoms": [
          {
            "elSymbol": "C",
            "p3d": {
              "x": 1.141,
              "y": 1.0262,
              "z": 1.6347
            }
          },
          {
            "elSymbol": "C",
            "p3d": {
              "x": 0.3967,
              "y": -0.0479,
              "z": 0.8227
            }
          },
          {
            "elSymbol": "C",
            "p3d": {
              "x": 1.1459,
              "y": -1.371,
              "z": 0.9201
            }
          },
          {
            "elSymbol": "H",
            "p3d": {
              "x": 2.1461,
              "y": -1.2583,
              "z": 0.4976
            }
          },
          {
            "elSymbol": "H",
            "p3d": {
              "x": 0.6013,
              "y": -2.1408,
              "z": 0.3461
            }
          },
          {
            "elSymbol": "H",
            "p3d": {
              "x": 1.2113,
              "y": -1.6946,
              "z": 1.9559
            }
          },
          {
            "elSymbol": "H",
            "p3d": {
              "x": 2.1541,
              "y": 1.1435,
              "z": 1.2119
            }
          },
          {
            "elSymbol": "H",
            "p3d": {
              "x": 0.6143,
              "y": 1.976,
              "z": 1.5626
            }
          },
          {
            "elSymbol": "H",
            "p3d": {
              "x": 1.2058,
              "y": 0.7088,
              "z": 2.6868
            }
          },
          {
            "elSymbol": "H",
            "p3d": {
              "x": -0.6215,
              "y": -0.1789,
              "z": 1.2377
            }
          }
        ],
        "bonds": [
          {
            "atomIds": [
              0,
              1
            ],
            "bo": "SINGLE"
          },
          {
            "atomIds": [
              1,
              2
            ],
            "bo": "SINGLE"
          },
          {
            "atomIds": [
              2,
              3
            ],
            "bo": "SINGLE"
          },
          {
            "atomIds": [
              2,
              4
            ],
            "bo": "SINGLE"
          },
          {
            "atomIds": [
              2,
              5
            ],
            "bo": "SINGLE"
          },
          {
            "atomIds": [
              0,
              6
            ],
            "bo": "SINGLE"
          },
          {
            "atomIds": [
              0,
              7
            ],
            "bo": "SINGLE"
          },
          {
            "atomIds": [
              0,
              8
            ],
            "bo": "SINGLE"
          },
          {
            "atomIds": [
              1,
              9
            ],
            "bo": "SINGLE"
          }
        ]
      },
      "vertexId": 91288,
      "buildingBlockId": 32,
      "buildingBlockType": "FRAGMENT",
      "isRCV": false,
      "properties": {
        "ATTACHMENT_POINTS": "2#SubRM:1:SINGLE:0.2868%0.3850%-0.6430 "
      },
      "uniquefyingPropertyKeys": [],
      "allowedMutationTypes": [
        "DELETE",
        "EXTEND",
        "CHANGEBRANCH",
        "CHANGELINK",
        "ADDLINK",
        "DELETELINK",
        "DELETECHAIN"
      ],
      "vertexType": "MolecularFragment"
    },
    {
      "lstAPs": [
        {
          "id": 120525,
          "atomPositionNumber": 1,
          "atomPositionNumberInMol": 28,
          "apClass": {
            "rule": "SubRS",
            "subClass": 1,
            "bndTyp": "SINGLE"
          },
          "dirVec": {
            "x": 0.2985,
            "y": 0.384,
            "z": -0.6258
          }
        }
      ],
      "lstSymAPs": [],
      "mol": {
        "atoms": [
          {
            "elSymbol": "C",
            "p3d": {
              "x": -1.0244,
              "y": -0.2225,
              "z": 1.3991
            }
          },
          {
            "elSymbol": "C",
            "p3d": {
              "x": 0.3973,
              "y": -0.042,
              "z": 0.8195
            }
          },
          {
            "elSymbol": "H",
            "p3d": {
              "x": -1.5635,
              "y": -0.9908,
              "z": 0.8263
            }
          },
          {
            "elSymbol": "H",
            "p3d": {
              "x": -0.941,
              "y": -0.535,
              "z": 2.446
            }
          },
          {
            "elSymbol": "H",
            "p3d": {
              "x": -1.5586,
              "y": 0.7335,
              "z": 1.3382
            }
          },
          {
            "elSymbol": "H",
            "p3d": {
              "x": 0.9335,
              "y": 0.7221,
              "z": 1.4011
            }
          },
          {
            "elSymbol": "H",
            "p3d": {
              "x": 0.927,
              "y": -1.0102,
              "z": 0.9001
            }
          }
        ],
        "bonds": [
          {
            "atomIds": [
              0,
              1
            ],
            "bo": "SINGLE"
          },
          {
            "atomIds": [
              0,
              2
            ],
            "bo": "SINGLE"
          },
          {
            "atomIds": [
              0,
              3
            ],
            "bo": "SINGLE"
          },
          {
            "atomIds": [
              0,
              4
            ],
            "bo": "SINGLE"
          },
          {
            "atomIds": [
              1,
              5
            ],
            "bo": "SINGLE"
          },
          {
            "atomIds": [
              1,
              6
            ],
            "bo": "SINGLE"
          }
        ]
      },
      "vertexId": 91456,
      "buildingBlockId": 31,
      "buildingBlockType": "FRAGMENT",
      "isRCV": false,
      "properties": {
        "ATTACHMENT_POINTS": "2#SubRS:1:SINGLE:0.2985%0.3840%-0.6258 "
      },
      "uniquefyingPropertyKeys": [],
      "allowedMutationTypes": [
        "DELETE",
        "EXTEND",
        "CHANGEBRANCH",
        "CHANGELINK",
        "ADDLINK",
        "DELETELINK",
        "DELETECHAIN"
      ],
      "vertexType": "MolecularFragment"
    },
    {
      "lstAPs": [
        {
          "id": 120526,
          "atomPositionNumber": 1,
          "atomPositionNumberInMol": 35,
          "apClass": {
            "rule": "SubRS",
            "subClass": 1,
            "bndTyp": "SINGLE"
          },
          "dirVec": {
            "x": 0.2985,
            "y": 0.384,
            "z": -0.6258
          }
        }
      ],
      "lstSymAPs": [],
      "mol": {
        "atoms": [
          {
            "elSymbol": "C",
            "p3d": {
              "x": -1.0244,
              "y": -0.2225,
              "z": 1.3991
            }
          },
          {
            "elSymbol": "C",
            "p3d": {
              "x": 0.3973,
              "y": -0.042,
              "z": 0.8195
            }
          },
          {
            "elSymbol": "H",
            "p3d": {
              "x": -1.5635,
              "y": -0.9908,
              "z": 0.8263
            }
          },
          {
            "elSymbol": "H",
            "p3d": {
              "x": -0.941,
              "y": -0.535,
              "z": 2.446
            }
          },
          {
            "elSymbol": "H",
            "p3d": {
              "x": -1.5586,
              "y": 0.7335,
              "z": 1.3382
            }
          },
          {
            "elSymbol": "H",
            "p3d": {
              "x": 0.9335,
              "y": 0.7221,
              "z": 1.4011
            }
          },
          {
            "elSymbol": "H",
            "p3d": {
              "x": 0.927,
              "y": -1.0102,
              "z": 0.9001
            }
          }
        ],
        "bonds": [
          {
            "atomIds": [
              0,
              1
            ],
            "bo": "SINGLE"
          },
          {
            "atomIds": [
              0,
              2
            ],
            "bo": "SINGLE"
          },
          {
            "atomIds": [
              0,
              3
            ],
            "bo": "SINGLE"
          },
          {
            "atomIds": [
              0,
              4
            ],
            "bo": "SINGLE"
          },
          {
            "atomIds": [
              1,
              5
            ],
            "bo": "SINGLE"
          },
          {
            "atomIds": [
              1,
              6
            ],
            "bo": "SINGLE"
          }
        ]
      },
      "vertexId": 91299,
      "buildingBlockId": 31,
      "buildingBlockType": "FRAGMENT",
      "isRCV": false,
      "properties": {
        "ATTACHMENT_POINTS": "2#SubRS:1:SINGLE:0.2985%0.3840%-0.6258 "
      },
      "uniquefyingPropertyKeys": [],
      "allowedMutationTypes": [
        "DELETE",
        "EXTEND",
        "CHANGEBRANCH",
        "CHANGELINK",
        "ADDLINK",
        "DELETELINK",
        "DELETECHAIN"
      ],
      "vertexType": "MolecularFragment"
    },
    {
      "lstAPs": [
        {
          "id": 120527,
          "atomPositionNumber": 1,
          "atomPositionNumberInMol": 42,
          "apClass": {
            "rule": "SubRM",
            "subClass": 1,
            "bndTyp": "SINGLE"
          },
          "dirVec": {
            "x": 0.2868,
            "y": 0.385,
            "z": -0.643
          }
        }
      ],
      "lstSymAPs": [],
      "mol": {
        "atoms": [
          {
            "elSymbol": "C",
            "p3d": {
              "x": 1.141,
              "y": 1.0262,
              "z": 1.6347
            }
          },
          {
            "elSymbol": "C",
            "p3d": {
              "x": 0.3967,
              "y": -0.0479,
              "z": 0.8227
            }
          },
          {
            "elSymbol": "C",
            "p3d": {
              "x": 1.1459,
              "y": -1.371,
              "z": 0.9201
            }
          },
          {
            "elSymbol": "H",
            "p3d": {
              "x": 2.1461,
              "y": -1.2583,
              "z": 0.4976
            }
          },
          {
            "elSymbol": "H",
            "p3d": {
              "x": 0.6013,
              "y": -2.1408,
              "z": 0.3461
            }
          },
          {
            "elSymbol": "H",
            "p3d": {
              "x": 1.2113,
              "y": -1.6946,
              "z": 1.9559
            }
          },
          {
            "elSymbol": "H",
            "p3d": {
              "x": 2.1541,
              "y": 1.1435,
              "z": 1.2119
            }
          },
          {
            "elSymbol": "H",
            "p3d": {
              "x": 0.6143,
              "y": 1.976,
              "z": 1.5626
            }
          },
          {
            "elSymbol": "H",
            "p3d": {
              "x": 1.2058,
              "y": 0.7088,
              "z": 2.6868
            }
          },
          {
            "elSymbol": "H",
            "p3d": {
              "x": -0.6215,
              "y": -0.1789,
              "z": 1.2377
            }
          }
        ],
        "bonds": [
          {
            "atomIds": [
              0,
              1
            ],
            "bo": "SINGLE"
          },
          {
            "atomIds": [
              1,
              2
            ],
            "bo": "SINGLE"
          },
          {
            "atomIds": [
              2,
              3
            ],
            "bo": "SINGLE"
          },
          {
            "atomIds": [
              2,
              4
            ],
            "bo": "SINGLE"
          },
          {
            "atomIds": [
              2,
              5
            ],
            "bo": "SINGLE"
          },
          {
            "atomIds": [
              0,
              6
            ],
            "bo": "SINGLE"
          },
          {
            "atomIds": [
              0,
              7
            ],
            "bo": "SINGLE"
          },
          {
            "atomIds": [
              0,
              8
            ],
            "bo": "SINGLE"
          },
          {
            "atomIds": [
              1,
              9
            ],
            "bo": "SINGLE"
          }
        ]
      },
      "vertexId": 91455,
      "buildingBlockId": 32,
      "buildingBlockType": "FRAGMENT",
      "isRCV": false,
      "properties": {
        "ATTACHMENT_POINTS": "2#SubRM:1:SINGLE:0.2868%0.3850%-0.6430 "
      },
      "uniquefyingPropertyKeys": [],
      "allowedMutationTypes": [
        "DELETE",
        "EXTEND",
        "CHANGEBRANCH",
        "CHANGELINK",
        "ADDLINK",
        "DELETELINK",
        "DELETECHAIN"
      ],
      "vertexType": "MolecularFragment"
    }
  ],
  "gEdges": [
    {
      "srcAPID": 120472,
      "trgAPID": 120475,
      "bondType": "SINGLE"
    },
    {
      "srcAPID": 120474,
      "trgAPID": 120478,
      "bondType": "SINGLE"
    },
    {
      "srcAPID": 120473,
      "trgAPID": 120481,
      "bondType": "SINGLE"
    },
    {
      "srcAPID": 120476,
      "trgAPID": 120524,
      "bondType": "SINGLE"
    },
    {
      "srcAPID": 120480,
      "trgAPID": 120525,
      "bondType": "SINGLE"
    },
    {
      "srcAPID": 120479,
      "trgAPID": 120526,
      "bondType": "SINGLE"
    },
    {
      "srcAPID": 120477,
      "trgAPID": 120527,
      "bondType": "SINGLE"
    }
  ],
  "gRings": [],
  "symVertices": [
    {
      "symIds": [
        91288,
        91455
      ]
    },
    {
      "symIds": [
        91456,
        91299
      ]
    }
  ]
}

> <SMILES>
[Pt](C#O)(OC([H])([H])[H])([C]1N(C(C(N1C(C([H])([H])[H])(C([H])([H])[H])[H])([H])[H])(C(C([H])([H])[H])([H])[H])C(C([H])([H])[H])([H])[H])C(C([H])([H])[H])(C([H])([H])[H])[H])C#N

$$$$
