M00006926
  CDK     04222211123D

 39 41  0  0  0  0  0  0  0  0999 V2000
   -2.4184    0.1768   -1.1164 Pt  0  0  0  0  0  0  0  0  0  0  0  0
   -4.3359    0.4678   -1.3968 C   0  0  0  0  0  0  0  0  0  0  0  0
   -5.4510    0.6338   -1.5629 O   0  0  0  0  0  0  0  0  0  0  0  0
   -2.1679    2.1652   -2.3300 S   0  0  0  0  0  0  0  0  0  0  0  0
   -1.5848    1.4269   -3.8815 C   0  0  0  0  0  0  0  0  0  0  0  0
   -1.8674    2.0790   -4.7159 H   0  0  0  0  0  0  0  0  0  0  0  0
   -2.0320    0.4405   -4.0423 H   0  0  0  0  0  0  0  0  0  0  0  0
   -0.4918    1.3256   -3.8725 H   0  0  0  0  0  0  0  0  0  0  0  0
   -0.2221   -0.1222   -0.7836 P   0  0  0  0  0  0  0  0  0  0  0  0
    0.7200    0.1750   -2.1596 O   0  0  0  0  0  0  0  0  0  0  0  0
    0.2828   -1.7228   -0.5898 O   0  0  0  0  0  0  0  0  0  0  0  0
    1.8739   -0.7053   -2.1337 C   0  0  0  0  0  0  0  0  0  0  0  0
    2.7504   -0.0853   -1.8626 H   0  0  0  0  0  0  0  0  0  0  0  0
    1.9701   -1.0378   -3.1865 H   0  0  0  0  0  0  0  0  0  0  0  0
    1.6165   -1.8586   -1.1495 C   0  0  0  0  0  0  0  0  0  0  0  0
    1.5909   -2.8549   -1.6339 H   0  0  0  0  0  0  0  0  0  0  0  0
    2.3288   -1.8801   -0.3014 H   0  0  0  0  0  0  0  0  0  0  0  0
    0.3621    2.6490   -0.7584 H   0  0  0  0  0  0  0  0  0  0  0  0
    0.6635    2.2374    0.2162 C   0  0  0  0  0  0  0  0  0  0  0  0
    0.5060    0.9121    0.5494 C   0  0  0  0  0  0  0  0  0  0  0  0
    1.6280    2.6891    2.3913 C   0  0  0  0  0  0  0  0  0  0  0  0
    0.8686    0.4048    1.8338 C   0  0  0  0  0  0  0  0  0  0  0  0
    1.2372    3.1402    1.1551 C   0  0  0  0  0  0  0  0  0  0  0  0
    1.4530    1.3181    2.7587 C   0  0  0  0  0  0  0  0  0  0  0  0
    0.6741   -0.9516    2.2541 C   0  0  0  0  0  0  0  0  0  0  0  0
    1.3527    4.1869    0.8745 H   0  0  0  0  0  0  0  0  0  0  0  0
    2.3006    1.5720    4.7456 H   0  0  0  0  0  0  0  0  0  0  0  0
    2.0725    3.3719    3.1176 H   0  0  0  0  0  0  0  0  0  0  0  0
    1.0579   -1.3611    3.5061 C   0  0  0  0  0  0  0  0  0  0  0  0
    0.1961   -1.6734    1.5831 H   0  0  0  0  0  0  0  0  0  0  0  0
    0.8982   -2.3921    3.8248 H   0  0  0  0  0  0  0  0  0  0  0  0
    1.6614   -0.4490    4.4196 C   0  0  0  0  0  0  0  0  0  0  0  0
    1.9570   -0.8079    5.4043 H   0  0  0  0  0  0  0  0  0  0  0  0
    1.8506    0.8588    4.0552 C   0  0  0  0  0  0  0  0  0  0  0  0
   -3.1423   -1.7041    0.0687 S   0  0  0  0  0  0  0  0  0  0  0  0
   -2.6179   -2.9546   -1.1364 C   0  0  0  0  0  0  0  0  0  0  0  0
   -1.5902   -3.2776   -0.9270 H   0  0  0  0  0  0  0  0  0  0  0  0
   -2.6718   -2.5673   -2.1591 H   0  0  0  0  0  0  0  0  0  0  0  0
   -3.2793   -3.8252   -1.0583 H   0  0  0  0  0  0  0  0  0  0  0  0
  2  3  3  0  0  0  0
  1  2  1  0  0  0  0
  5  6  1  0  0  0  0
  5  7  1  0  0  0  0
  5  8  1  0  0  0  0
  4  5  1  0  0  0  0
  1  4  1  0  0  0  0
 10  9  1  0  0  0  0
 11  9  1  0  0  0  0
 12 10  1  0  0  0  0
 12 15  1  0  0  0  0
 13 12  1  0  0  0  0
 14 12  1  0  0  0  0
 15 11  1  0  0  0  0
 16 15  1  0  0  0  0
 17 15  1  0  0  0  0
  1  9  1  0  0  0  0
 18 19  1  0  0  0  0
 19 20  1  0  0  0  0
 19 23  2  0  0  0  0
 20 22  2  0  0  0  0
 22 24  1  0  0  0  0
 21 23  1  0  0  0  0
 21 24  2  0  0  0  0
 25 22  1  0  0  0  0
 24 34  1  0  0  0  0
 25 29  2  0  0  0  0
 29 32  1  0  0  0  0
 32 34  2  0  0  0  0
 21 28  1  0  0  0  0
 23 26  1  0  0  0  0
 25 30  1  0  0  0  0
 27 34  1  0  0  0  0
 32 33  1  0  0  0  0
 29 31  1  0  0  0  0
  9 20  1  0  0  0  0
 36 37  1  0  0  0  0
 36 38  1  0  0  0  0
 36 39  1  0  0  0  0
 35 36  1  0  0  0  0
  1 35  1  0  0  0  0
M  END
> <PM6_ENERGY>
-338.978

> <UID>
OHNZYXASSGJJES-TVYPVNKPNA-L

> <FITNESS>
1.13956

> <GCODE>
7799

> <GraphENC>
7799 72_1_0,79_64_1,118_58_1,85_64_1,156543_39_1, 72_0_79_0_SINGLE_Xlig:0_Xlig:1,72_2_118_1_SINGLE_scaff:0_MPhosphonite:1,72_1_85_0_SINGLE_Xlig:0_Xlig:1,118_0_156543_0_SINGLE_LPhosphoniteSubR:0_SubArM:1, 

> <GraphJson>
{
  "graphId": 7799,
  "gVertices": [
    {
      "lstAPs": [
        {
          "id": 204931,
          "atomPositionNumber": 0,
          "atomPositionNumberInMol": 0,
          "apClass": {
            "rule": "Xlig",
            "subClass": 0,
            "bndTyp": "SINGLE"
          },
          "dirVec": {
            "x": -2.3339,
            "y": -0.0087,
            "z": 0.8172
          }
        },
        {
          "id": 204932,
          "atomPositionNumber": 0,
          "atomPositionNumberInMol": 0,
          "apClass": {
            "rule": "Xlig",
            "subClass": 0,
            "bndTyp": "SINGLE"
          },
          "dirVec": {
            "x": 2.336,
            "y": -5.0E-4,
            "z": 0.829
          }
        },
        {
          "id": 204933,
          "atomPositionNumber": 0,
          "atomPositionNumberInMol": 0,
          "apClass": {
            "rule": "scaff",
            "subClass": 0,
            "bndTyp": "SINGLE"
          },
          "dirVec": {
            "x": -0.0095,
            "y": 0.0046,
            "z": -1.7113
          }
        }
      ],
      "lstSymAPs": [
        {
          "symIds": [
            0,
            1
          ]
        }
      ],
      "mol": {
        "atoms": [
          {
            "elSymbol": "Pt",
            "p3d": {
              "x": -0.0098,
              "y": 0.0049,
              "z": 0.6289
            }
          },
          {
            "elSymbol": "C",
            "p3d": {
              "x": -6.0E-4,
              "y": 0.0016,
              "z": 2.5609
            }
          },
          {
            "elSymbol": "O",
            "p3d": {
              "x": 0.0025,
              "y": -0.0041,
              "z": 3.6974
            }
          },
          {
            "elSymbol": "Du",
            "p3d": {
              "x": -0.007,
              "y": 1.0013,
              "z": 0.6372
            }
          },
          {
            "elSymbol": "Du",
            "p3d": {
              "x": -0.0014,
              "y": 0.9902,
              "z": 2.5698
            }
          }
        ],
        "bonds": [
          {
            "atomIds": [
              1,
              2
            ],
            "bo": "TRIPLE"
          },
          {
            "atomIds": [
              0,
              1
            ],
            "bo": "SINGLE"
          },
          {
            "atomIds": [
              3,
              0
            ],
            "bo": "SINGLE"
          },
          {
            "atomIds": [
              4,
              1
            ],
            "bo": "SINGLE"
          }
        ]
      },
      "vertexId": 72,
      "buildingBlockId": 0,
      "buildingBlockType": "SCAFFOLD",
      "isRCV": false,
      "properties": {
        "ATTACHMENT_POINTS": "1#Xlig:0:SINGLE:-2.3339%-0.0087%0.8172,Xlig:0:SINGLE:2.3360%-0.0005%0.8290,scaff:0:SINGLE:-0.0095%0.0046%-1.7113 "
      },
      "uniquefyingPropertyKeys": [],
      "allowedMutationTypes": [
        "DELETE",
        "EXTEND",
        "CHANGEBRANCH",
        "CHANGELINK",
        "ADDLINK",
        "DELETELINK",
        "DELETECHAIN"
      ],
      "vertexType": "MolecularFragment"
    },
    {
      "lstAPs": [
        {
          "id": 204934,
          "atomPositionNumber": 0,
          "atomPositionNumberInMol": 5,
          "apClass": {
            "rule": "Xlig",
            "subClass": 1,
            "bndTyp": "SINGLE"
          },
          "dirVec": {
            "x": -0.102,
            "y": 0.0185,
            "z": -1.0265
          }
        }
      ],
      "lstSymAPs": [],
      "mol": {
        "atoms": [
          {
            "elSymbol": "S",
            "p3d": {
              "x": -0.3267,
              "y": 2.3403,
              "z": -1.0022
            }
          },
          {
            "elSymbol": "C",
            "p3d": {
              "x": -0.626,
              "y": 2.4866,
              "z": 0.7805
            }
          },
          {
            "elSymbol": "H",
            "p3d": {
              "x": 0.1766,
              "y": 3.089,
              "z": 1.2414
            }
          },
          {
            "elSymbol": "H",
            "p3d": {
              "x": -0.651,
              "y": 1.5065,
              "z": 1.2643
            }
          },
          {
            "elSymbol": "H",
            "p3d": {
              "x": -1.5658,
              "y": 2.981,
              "z": 0.9515
            }
          }
        ],
        "bonds": [
          {
            "atomIds": [
              1,
              2
            ],
            "bo": "SINGLE"
          },
          {
            "atomIds": [
              1,
              3
            ],
            "bo": "SINGLE"
          },
          {
            "atomIds": [
              1,
              4
            ],
            "bo": "SINGLE"
          },
          {
            "atomIds": [
              0,
              1
            ],
            "bo": "SINGLE"
          }
        ]
      },
      "vertexId": 79,
      "buildingBlockId": 63,
      "buildingBlockType": "FRAGMENT",
      "isRCV": false,
      "properties": {
        "ATTACHMENT_POINTS": "1#Xlig:1:SINGLE:-0.1020%0.0185%-1.0265 "
      },
      "uniquefyingPropertyKeys": [],
      "allowedMutationTypes": [
        "DELETE",
        "EXTEND",
        "CHANGEBRANCH",
        "CHANGELINK",
        "ADDLINK",
        "DELETELINK",
        "DELETECHAIN"
      ],
      "vertexType": "MolecularFragment"
    },
    {
      "lstAPs": [
        {
          "id": 204935,
          "atomPositionNumber": 0,
          "atomPositionNumberInMol": 10,
          "apClass": {
            "rule": "LPhosphoniteSubR",
            "subClass": 0,
            "bndTyp": "SINGLE"
          },
          "dirVec": {
            "x": 4.6565,
            "y": 2.2234,
            "z": 1.9268
          }
        },
        {
          "id": 204936,
          "atomPositionNumber": 0,
          "atomPositionNumberInMol": 10,
          "apClass": {
            "rule": "MPhosphonite",
            "subClass": 1,
            "bndTyp": "SINGLE"
          },
          "dirVec": {
            "x": 2.1365,
            "y": 0.094,
            "z": 0.9533
          }
        }
      ],
      "lstSymAPs": [],
      "mol": {
        "atoms": [
          {
            "elSymbol": "P",
            "p3d": {
              "x": 3.5562,
              "y": 0.863,
              "z": 2.4507
            }
          },
          {
            "elSymbol": "O",
            "p3d": {
              "x": 4.552,
              "y": -0.2283,
              "z": 3.0401
            }
          },
          {
            "elSymbol": "O",
            "p3d": {
              "x": 2.9564,
              "y": 1.3839,
              "z": 3.8353
            }
          },
          {
            "elSymbol": "C",
            "p3d": {
              "x": 4.8994,
              "y": 0.107,
              "z": 4.4321
            }
          },
          {
            "elSymbol": "H",
            "p3d": {
              "x": 5.9328,
              "y": 0.4241,
              "z": 4.4931
            }
          },
          {
            "elSymbol": "H",
            "p3d": {
              "x": 4.7479,
              "y": -0.7734,
              "z": 5.0714
            }
          },
          {
            "elSymbol": "C",
            "p3d": {
              "x": 3.9773,
              "y": 1.2052,
              "z": 4.8652
            }
          },
          {
            "elSymbol": "H",
            "p3d": {
              "x": 3.5192,
              "y": 0.9618,
              "z": 5.809
            }
          },
          {
            "elSymbol": "H",
            "p3d": {
              "x": 4.5435,
              "y": 2.1295,
              "z": 4.9863
            }
          }
        ],
        "bonds": [
          {
            "atomIds": [
              1,
              0
            ],
            "bo": "SINGLE"
          },
          {
            "atomIds": [
              2,
              0
            ],
            "bo": "SINGLE"
          },
          {
            "atomIds": [
              3,
              1
            ],
            "bo": "SINGLE"
          },
          {
            "atomIds": [
              3,
              6
            ],
            "bo": "SINGLE"
          },
          {
            "atomIds": [
              4,
              3
            ],
            "bo": "SINGLE"
          },
          {
            "atomIds": [
              5,
              3
            ],
            "bo": "SINGLE"
          },
          {
            "atomIds": [
              6,
              2
            ],
            "bo": "SINGLE"
          },
          {
            "atomIds": [
              7,
              6
            ],
            "bo": "SINGLE"
          },
          {
            "atomIds": [
              8,
              6
            ],
            "bo": "SINGLE"
          }
        ]
      },
      "vertexId": 118,
      "buildingBlockId": 57,
      "buildingBlockType": "FRAGMENT",
      "isRCV": false,
      "properties": {
        "ATTACHMENT_POINTS": "1#LPhosphoniteSubR:0:SINGLE:4.6565%2.2234%1.9268,MPhosphonite:1:SINGLE:2.1365%0.0940%0.9533 "
      },
      "uniquefyingPropertyKeys": [],
      "allowedMutationTypes": [
        "DELETE",
        "EXTEND",
        "CHANGEBRANCH",
        "CHANGELINK",
        "ADDLINK",
        "DELETELINK",
        "DELETECHAIN"
      ],
      "vertexType": "MolecularFragment"
    },
    {
      "lstAPs": [
        {
          "id": 204937,
          "atomPositionNumber": 0,
          "atomPositionNumberInMol": 36,
          "apClass": {
            "rule": "Xlig",
            "subClass": 1,
            "bndTyp": "SINGLE"
          },
          "dirVec": {
            "x": -0.102,
            "y": 0.0185,
            "z": -1.0265
          }
        }
      ],
      "lstSymAPs": [],
      "mol": {
        "atoms": [
          {
            "elSymbol": "S",
            "p3d": {
              "x": -0.3267,
              "y": 2.3403,
              "z": -1.0022
            }
          },
          {
            "elSymbol": "C",
            "p3d": {
              "x": -0.626,
              "y": 2.4866,
              "z": 0.7805
            }
          },
          {
            "elSymbol": "H",
            "p3d": {
              "x": 0.1766,
              "y": 3.089,
              "z": 1.2414
            }
          },
          {
            "elSymbol": "H",
            "p3d": {
              "x": -0.651,
              "y": 1.5065,
              "z": 1.2643
            }
          },
          {
            "elSymbol": "H",
            "p3d": {
              "x": -1.5658,
              "y": 2.981,
              "z": 0.9515
            }
          }
        ],
        "bonds": [
          {
            "atomIds": [
              1,
              2
            ],
            "bo": "SINGLE"
          },
          {
            "atomIds": [
              1,
              3
            ],
            "bo": "SINGLE"
          },
          {
            "atomIds": [
              1,
              4
            ],
            "bo": "SINGLE"
          },
          {
            "atomIds": [
              0,
              1
            ],
            "bo": "SINGLE"
          }
        ]
      },
      "vertexId": 85,
      "buildingBlockId": 63,
      "buildingBlockType": "FRAGMENT",
      "isRCV": false,
      "properties": {
        "ATTACHMENT_POINTS": "1#Xlig:1:SINGLE:-0.1020%0.0185%-1.0265 "
      },
      "uniquefyingPropertyKeys": [],
      "allowedMutationTypes": [
        "DELETE",
        "EXTEND",
        "CHANGEBRANCH",
        "CHANGELINK",
        "ADDLINK",
        "DELETELINK",
        "DELETECHAIN"
      ],
      "vertexType": "MolecularFragment"
    },
    {
      "lstAPs": [
        {
          "id": 204962,
          "atomPositionNumber": 2,
          "atomPositionNumberInMol": 21,
          "apClass": {
            "rule": "SubArM",
            "subClass": 1,
            "bndTyp": "SINGLE"
          },
          "dirVec": {
            "x": 0.2839,
            "y": 0.3907,
            "z": -0.6271
          }
        }
      ],
      "lstSymAPs": [],
      "mol": {
        "atoms": [
          {
            "elSymbol": "H",
            "p3d": {
              "x": 1.8079,
              "y": 2.6521,
              "z": -0.6457
            }
          },
          {
            "elSymbol": "C",
            "p3d": {
              "x": 2.3292,
              "y": 1.8028,
              "z": -1.1346
            }
          },
          {
            "elSymbol": "C",
            "p3d": {
              "x": 1.6928,
              "y": 0.5701,
              "z": -1.2214
            }
          },
          {
            "elSymbol": "C",
            "p3d": {
              "x": 4.26,
              "y": 0.9161,
              "z": -2.2564
            }
          },
          {
            "elSymbol": "C",
            "p3d": {
              "x": 2.3547,
              "y": -0.5116,
              "z": -1.8205
            }
          },
          {
            "elSymbol": "C",
            "p3d": {
              "x": 3.6118,
              "y": 1.9867,
              "z": -1.654
            }
          },
          {
            "elSymbol": "C",
            "p3d": {
              "x": 3.6519,
              "y": -0.333,
              "z": -2.339
            }
          },
          {
            "elSymbol": "C",
            "p3d": {
              "x": 1.7318,
              "y": -1.7781,
              "z": -1.8989
            }
          },
          {
            "elSymbol": "H",
            "p3d": {
              "x": 4.0936,
              "y": 2.9609,
              "z": -1.5808
            }
          },
          {
            "elSymbol": "H",
            "p3d": {
              "x": 5.3077,
              "y": -1.3005,
              "z": -3.3639
            }
          },
          {
            "elSymbol": "H",
            "p3d": {
              "x": 5.2705,
              "y": 1.0583,
              "z": -2.6578
            }
          },
          {
            "elSymbol": "C",
            "p3d": {
              "x": 2.3998,
              "y": -2.8526,
              "z": -2.5007
            }
          },
          {
            "elSymbol": "H",
            "p3d": {
              "x": 0.724,
              "y": -1.9306,
              "z": -1.4908
            }
          },
          {
            "elSymbol": "H",
            "p3d": {
              "x": 1.9155,
              "y": -3.8304,
              "z": -2.576
            }
          },
          {
            "elSymbol": "C",
            "p3d": {
              "x": 3.684,
              "y": -2.6697,
              "z": -3.0355
            }
          },
          {
            "elSymbol": "H",
            "p3d": {
              "x": 4.2028,
              "y": -3.5195,
              "z": -3.4955
            }
          },
          {
            "elSymbol": "C",
            "p3d": {
              "x": 4.3092,
              "y": -1.4197,
              "z": -2.9387
            }
          }
        ],
        "bonds": [
          {
            "atomIds": [
              0,
              1
            ],
            "bo": "SINGLE"
          },
          {
            "atomIds": [
              1,
              2
            ],
            "bo": "SINGLE"
          },
          {
            "atomIds": [
              1,
              5
            ],
            "bo": "DOUBLE"
          },
          {
            "atomIds": [
              2,
              4
            ],
            "bo": "DOUBLE"
          },
          {
            "atomIds": [
              4,
              6
            ],
            "bo": "SINGLE"
          },
          {
            "atomIds": [
              3,
              5
            ],
            "bo": "SINGLE"
          },
          {
            "atomIds": [
              3,
              6
            ],
            "bo": "DOUBLE"
          },
          {
            "atomIds": [
              7,
              4
            ],
            "bo": "SINGLE"
          },
          {
            "atomIds": [
              6,
              16
            ],
            "bo": "SINGLE"
          },
          {
            "atomIds": [
              7,
              11
            ],
            "bo": "DOUBLE"
          },
          {
            "atomIds": [
              11,
              14
            ],
            "bo": "SINGLE"
          },
          {
            "atomIds": [
              14,
              16
            ],
            "bo": "DOUBLE"
          },
          {
            "atomIds": [
              3,
              10
            ],
            "bo": "SINGLE"
          },
          {
            "atomIds": [
              5,
              8
            ],
            "bo": "SINGLE"
          },
          {
            "atomIds": [
              7,
              12
            ],
            "bo": "SINGLE"
          },
          {
            "atomIds": [
              9,
              16
            ],
            "bo": "SINGLE"
          },
          {
            "atomIds": [
              14,
              15
            ],
            "bo": "SINGLE"
          },
          {
            "atomIds": [
              11,
              13
            ],
            "bo": "SINGLE"
          }
        ]
      },
      "vertexId": 156543,
      "buildingBlockId": 38,
      "buildingBlockType": "FRAGMENT",
      "isRCV": false,
      "properties": {
        "ATTACHMENT_POINTS": "3#SubArM:1:SINGLE:0.2839%0.3907%-0.6271 "
      },
      "uniquefyingPropertyKeys": [],
      "allowedMutationTypes": [
        "DELETE",
        "EXTEND",
        "CHANGEBRANCH",
        "CHANGELINK",
        "ADDLINK",
        "DELETELINK",
        "DELETECHAIN"
      ],
      "vertexType": "MolecularFragment"
    }
  ],
  "gEdges": [
    {
      "srcAPID": 204931,
      "trgAPID": 204934,
      "bondType": "SINGLE"
    },
    {
      "srcAPID": 204933,
      "trgAPID": 204936,
      "bondType": "SINGLE"
    },
    {
      "srcAPID": 204932,
      "trgAPID": 204937,
      "bondType": "SINGLE"
    },
    {
      "srcAPID": 204935,
      "trgAPID": 204962,
      "bondType": "SINGLE"
    }
  ],
  "gRings": [],
  "symVertices": []
}

> <SMILES>
[Pt](C#O)(SC([H])([H])[H])([P]1(OC(C(O1)([H])[H])([H])[H])C=2C([H])=C(C(=C3C2C(=C(C(=C3[H])[H])[H])[H])[H])[H])SC([H])([H])[H]

$$$$
