M00005971
  CDK     04222210513D

 50 52  0  0  0  0  0  0  0  0999 V2000
    0.0597    1.7026   -0.2380 Pt  0  0  0  0  0  0  0  0  0  0  0  0
   -0.0924    3.6108   -0.3184 C   0  0  0  0  0  0  0  0  0  0  0  0
   -0.2164    4.7481   -0.3764 O   0  0  0  0  0  0  0  0  0  0  0  0
    1.9981    1.7140   -0.7471 C   0  0  0  0  0  0  0  0  0  0  0  0
    3.1170    1.6903   -1.0371 N   0  0  0  0  0  0  0  0  0  0  0  0
    0.1736   -0.9981    1.0077 N   0  0  0  0  0  0  0  0  0  0  0  0
    0.1307   -1.0081   -1.3650 N   0  0  0  0  0  0  0  0  0  0  0  0
    0.1247   -0.3321   -0.1821 C   0  0  0  0  0  0  0  0  0  0  0  0
    0.2575   -2.4870    1.0640 C   0  0  0  0  0  0  0  0  0  0  0  0
   -0.2023   -2.8557    2.0117 H   0  0  0  0  0  0  0  0  0  0  0  0
    1.3336   -2.7780    1.0867 H   0  0  0  0  0  0  0  0  0  0  0  0
   -0.4512   -3.0969   -0.1513 C   0  0  0  0  0  0  0  0  0  0  0  0
   -1.5463   -2.9204   -0.0791 H   0  0  0  0  0  0  0  0  0  0  0  0
   -0.3206   -4.1966   -0.1575 H   0  0  0  0  0  0  0  0  0  0  0  0
    0.0902   -2.4970   -1.4531 C   0  0  0  0  0  0  0  0  0  0  0  0
    1.1244   -2.8671   -1.6711 H   0  0  0  0  0  0  0  0  0  0  0  0
   -0.5511   -2.7892   -2.3162 H   0  0  0  0  0  0  0  0  0  0  0  0
    0.1742   -0.2572   -2.6126 C   0  0  0  0  0  0  0  0  0  0  0  0
    0.1294    1.1547   -5.0159 C   0  0  0  0  0  0  0  0  0  0  0  0
    1.2816   -0.3546   -3.4841 C   0  0  0  0  0  0  0  0  0  0  0  0
   -0.9272    0.5631   -2.9214 C   0  0  0  0  0  0  0  0  0  0  0  0
   -0.9454    1.2656   -4.1259 C   0  0  0  0  0  0  0  0  0  0  0  0
    1.2283    0.3582   -4.6956 C   0  0  0  0  0  0  0  0  0  0  0  0
   -1.7698    0.6436   -2.2250 H   0  0  0  0  0  0  0  0  0  0  0  0
   -1.7958    1.9017   -4.3694 H   0  0  0  0  0  0  0  0  0  0  0  0
    2.0709    0.3002   -5.3851 H   0  0  0  0  0  0  0  0  0  0  0  0
    0.1120    1.7014   -5.9588 H   0  0  0  0  0  0  0  0  0  0  0  0
    2.5110   -1.1266   -3.1463 C   0  0  0  0  0  0  0  0  0  0  0  0
    3.1040   -1.3876   -4.0327 H   0  0  0  0  0  0  0  0  0  0  0  0
    2.3108   -2.0597   -2.6019 H   0  0  0  0  0  0  0  0  0  0  0  0
    3.1692   -0.5106   -2.4996 H   0  0  0  0  0  0  0  0  0  0  0  0
    0.1498   -0.2487    2.2527 C   0  0  0  0  0  0  0  0  0  0  0  0
    0.2739    1.1585    4.6593 C   0  0  0  0  0  0  0  0  0  0  0  0
   -0.8558   -0.4565    3.2239 C   0  0  0  0  0  0  0  0  0  0  0  0
    1.1755    0.6923    2.4622 C   0  0  0  0  0  0  0  0  0  0  0  0
    1.2337    1.3910    3.6687 C   0  0  0  0  0  0  0  0  0  0  0  0
   -0.7615    0.2500    4.4344 C   0  0  0  0  0  0  0  0  0  0  0  0
    1.9312    0.8703    1.6881 H   0  0  0  0  0  0  0  0  0  0  0  0
    2.0314    2.1145    3.8368 H   0  0  0  0  0  0  0  0  0  0  0  0
   -1.5161    0.0934    5.2051 H   0  0  0  0  0  0  0  0  0  0  0  0
    0.3297    1.6943    5.6067 H   0  0  0  0  0  0  0  0  0  0  0  0
   -2.0158   -1.3618    2.9806 C   0  0  0  0  0  0  0  0  0  0  0  0
   -2.5419   -1.0709    2.0523 H   0  0  0  0  0  0  0  0  0  0  0  0
   -2.7599   -1.3247    3.7873 H   0  0  0  0  0  0  0  0  0  0  0  0
   -1.7052   -2.4114    2.8717 H   0  0  0  0  0  0  0  0  0  0  0  0
   -2.1984    1.6682    0.3228 S   0  0  0  0  0  0  0  0  0  0  0  0
   -2.1178    2.4157    1.9754 C   0  0  0  0  0  0  0  0  0  0  0  0
   -2.4834    3.4466    1.9388 H   0  0  0  0  0  0  0  0  0  0  0  0
   -1.0959    2.4035    2.3709 H   0  0  0  0  0  0  0  0  0  0  0  0
   -2.7557    1.8440    2.6590 H   0  0  0  0  0  0  0  0  0  0  0  0
  2  3  3  0  0  0  0
  1  2  1  0  0  0  0
  4  5  3  0  0  0  0
  1  4  1  0  0  0  0
  6  8  1  0  0  0  0
  7  8  1  0  0  0  0
  9  6  1  0  0  0  0
 10  9  1  0  0  0  0
 11  9  1  0  0  0  0
 12  9  1  0  0  0  0
 13 12  1  0  0  0  0
 14 12  1  0  0  0  0
 15  7  1  0  0  0  0
 16 15  1  0  0  0  0
 17 15  1  0  0  0  0
 12 15  1  0  0  0  0
  1  8  1  0  0  0  0
 18 21  1  0  0  0  0
 21 22  2  0  0  0  0
 19 22  1  0  0  0  0
 19 23  2  0  0  0  0
 20 23  1  0  0  0  0
 18 20  2  0  0  0  0
 22 25  1  0  0  0  0
 23 26  1  0  0  0  0
 19 27  1  0  0  0  0
 21 24  1  0  0  0  0
 28 29  1  0  0  0  0
 28 30  1  0  0  0  0
 28 31  1  0  0  0  0
 20 28  1  0  0  0  0
  7 18  1  0  0  0  0
 32 35  1  0  0  0  0
 35 36  2  0  0  0  0
 33 36  1  0  0  0  0
 33 37  2  0  0  0  0
 34 37  1  0  0  0  0
 32 34  2  0  0  0  0
 36 39  1  0  0  0  0
 37 40  1  0  0  0  0
 33 41  1  0  0  0  0
 35 38  1  0  0  0  0
 42 43  1  0  0  0  0
 42 44  1  0  0  0  0
 42 45  1  0  0  0  0
 34 42  1  0  0  0  0
  6 32  1  0  0  0  0
 47 48  1  0  0  0  0
 47 49  1  0  0  0  0
 47 50  1  0  0  0  0
 46 47  1  0  0  0  0
  1 46  1  0  0  0  0
M  END
> <PM6_ENERGY>
267.977

> <UID>
RDISUSMGYMNVHQ-LDPOSEEINA-M

> <FITNESS>
1.14551

> <GCODE>
6802

> <GraphENC>
6802 72_1_0,81_66_1,91_13_1,85_64_1,135330_37_1,135231_37_1, 72_0_81_0_SINGLE_Xlig:0_Xlig:1,72_2_91_2_SINGLE_scaff:0_M6HPyrimidinylidene:1,72_1_85_0_SINGLE_Xlig:0_Xlig:1,91_1_135330_0_SINGLE_L6HPyrimidinylideneSubN:0_SubArM:1,91_0_135231_0_SINGLE_L6HPyrimidinylideneSubN:0_SubArM:1, SymmetricSet [symIds=[135330, 135231]] 

> <GraphJson>
{
  "graphId": 6802,
  "gVertices": [
    {
      "lstAPs": [
        {
          "id": 177334,
          "atomPositionNumber": 0,
          "atomPositionNumberInMol": 0,
          "apClass": {
            "rule": "Xlig",
            "subClass": 0,
            "bndTyp": "SINGLE"
          },
          "dirVec": {
            "x": -2.3339,
            "y": -0.0087,
            "z": 0.8172
          }
        },
        {
          "id": 177335,
          "atomPositionNumber": 0,
          "atomPositionNumberInMol": 0,
          "apClass": {
            "rule": "Xlig",
            "subClass": 0,
            "bndTyp": "SINGLE"
          },
          "dirVec": {
            "x": 2.336,
            "y": -5.0E-4,
            "z": 0.829
          }
        },
        {
          "id": 177336,
          "atomPositionNumber": 0,
          "atomPositionNumberInMol": 0,
          "apClass": {
            "rule": "scaff",
            "subClass": 0,
            "bndTyp": "SINGLE"
          },
          "dirVec": {
            "x": -0.0095,
            "y": 0.0046,
            "z": -1.7113
          }
        }
      ],
      "lstSymAPs": [
        {
          "symIds": [
            0,
            1
          ]
        }
      ],
      "mol": {
        "atoms": [
          {
            "elSymbol": "Pt",
            "p3d": {
              "x": -0.0098,
              "y": 0.0049,
              "z": 0.6289
            }
          },
          {
            "elSymbol": "C",
            "p3d": {
              "x": -6.0E-4,
              "y": 0.0016,
              "z": 2.5609
            }
          },
          {
            "elSymbol": "O",
            "p3d": {
              "x": 0.0025,
              "y": -0.0041,
              "z": 3.6974
            }
          },
          {
            "elSymbol": "Du",
            "p3d": {
              "x": -0.007,
              "y": 1.0013,
              "z": 0.6372
            }
          },
          {
            "elSymbol": "Du",
            "p3d": {
              "x": -0.0014,
              "y": 0.9902,
              "z": 2.5698
            }
          }
        ],
        "bonds": [
          {
            "atomIds": [
              1,
              2
            ],
            "bo": "TRIPLE"
          },
          {
            "atomIds": [
              0,
              1
            ],
            "bo": "SINGLE"
          },
          {
            "atomIds": [
              3,
              0
            ],
            "bo": "SINGLE"
          },
          {
            "atomIds": [
              4,
              1
            ],
            "bo": "SINGLE"
          }
        ]
      },
      "vertexId": 72,
      "buildingBlockId": 0,
      "buildingBlockType": "SCAFFOLD",
      "isRCV": false,
      "properties": {
        "ATTACHMENT_POINTS": "1#Xlig:0:SINGLE:-2.3339%-0.0087%0.8172,Xlig:0:SINGLE:2.3360%-0.0005%0.8290,scaff:0:SINGLE:-0.0095%0.0046%-1.7113 "
      },
      "uniquefyingPropertyKeys": [],
      "allowedMutationTypes": [
        "DELETE",
        "EXTEND",
        "CHANGEBRANCH",
        "CHANGELINK",
        "ADDLINK",
        "DELETELINK",
        "DELETECHAIN"
      ],
      "vertexType": "MolecularFragment"
    },
    {
      "lstAPs": [
        {
          "id": 177337,
          "atomPositionNumber": 0,
          "atomPositionNumberInMol": 5,
          "apClass": {
            "rule": "Xlig",
            "subClass": 1,
            "bndTyp": "SINGLE"
          },
          "dirVec": {
            "x": 0.0192,
            "y": -0.0048,
            "z": -0.5645
          }
        }
      ],
      "lstSymAPs": [],
      "mol": {
        "atoms": [
          {
            "elSymbol": "C",
            "p3d": {
              "x": -1.967,
              "y": -0.0075,
              "z": -0.4937
            }
          },
          {
            "elSymbol": "N",
            "p3d": {
              "x": -3.1263,
              "y": -0.0054,
              "z": -0.4354
            }
          },
          {
            "elSymbol": "Du",
            "p3d": {
              "x": -1.9744,
              "y": 0.9926,
              "z": -0.5036
            }
          }
        ],
        "bonds": [
          {
            "atomIds": [
              0,
              1
            ],
            "bo": "TRIPLE"
          },
          {
            "atomIds": [
              2,
              0
            ],
            "bo": "SINGLE"
          }
        ]
      },
      "vertexId": 81,
      "buildingBlockId": 65,
      "buildingBlockType": "FRAGMENT",
      "isRCV": false,
      "properties": {
        "ATTACHMENT_POINTS": "1#Xlig:1:SINGLE:0.0192%-0.0048%-0.5645 "
      },
      "uniquefyingPropertyKeys": [],
      "allowedMutationTypes": [
        "DELETE",
        "EXTEND",
        "CHANGEBRANCH",
        "CHANGELINK",
        "ADDLINK",
        "DELETELINK",
        "DELETECHAIN"
      ],
      "vertexType": "MolecularFragment"
    },
    {
      "lstAPs": [
        {
          "id": 177338,
          "atomPositionNumber": 0,
          "atomPositionNumberInMol": 8,
          "apClass": {
            "rule": "L6HPyrimidinylideneSubN",
            "subClass": 0,
            "bndTyp": "SINGLE"
          },
          "dirVec": {
            "x": 3.6986,
            "y": 10.1321,
            "z": 12.1775
          }
        },
        {
          "id": 177339,
          "atomPositionNumber": 1,
          "atomPositionNumberInMol": 9,
          "apClass": {
            "rule": "L6HPyrimidinylideneSubN",
            "subClass": 0,
            "bndTyp": "SINGLE"
          },
          "dirVec": {
            "x": 4.7983,
            "y": 14.0099,
            "z": 14.7771
          }
        },
        {
          "id": 177340,
          "atomPositionNumber": 2,
          "atomPositionNumberInMol": 10,
          "apClass": {
            "rule": "M6HPyrimidinylidene",
            "subClass": 1,
            "bndTyp": "SINGLE"
          },
          "dirVec": {
            "x": 6.012,
            "y": 12.0516,
            "z": 12.7188
          }
        }
      ],
      "lstSymAPs": [
        {
          "symIds": [
            0,
            1
          ]
        }
      ],
      "mol": {
        "atoms": [
          {
            "elSymbol": "N",
            "p3d": {
              "x": 3.3266,
              "y": 11.1346,
              "z": 13.1445
            }
          },
          {
            "elSymbol": "N",
            "p3d": {
              "x": 3.8396,
              "y": 13.0125,
              "z": 14.3399
            }
          },
          {
            "elSymbol": "C",
            "p3d": {
              "x": 4.223,
              "y": 12.0593,
              "z": 13.4858
            }
          },
          {
            "elSymbol": "C",
            "p3d": {
              "x": 1.9257,
              "y": 11.1023,
              "z": 13.6161
            }
          },
          {
            "elSymbol": "H",
            "p3d": {
              "x": 1.5873,
              "y": 10.0735,
              "z": 13.6893
            }
          },
          {
            "elSymbol": "H",
            "p3d": {
              "x": 1.2755,
              "y": 11.6279,
              "z": 12.9065
            }
          },
          {
            "elSymbol": "C",
            "p3d": {
              "x": 1.8556,
              "y": 11.7608,
              "z": 14.9634
            }
          },
          {
            "elSymbol": "H",
            "p3d": {
              "x": 2.3477,
              "y": 11.1349,
              "z": 15.7024
            }
          },
          {
            "elSymbol": "H",
            "p3d": {
              "x": 0.8059,
              "y": 11.86,
              "z": 15.2619
            }
          },
          {
            "elSymbol": "C",
            "p3d": {
              "x": 2.4969,
              "y": 13.1208,
              "z": 14.9163
            }
          },
          {
            "elSymbol": "H",
            "p3d": {
              "x": 1.8796,
              "y": 13.7836,
              "z": 14.3197
            }
          },
          {
            "elSymbol": "H",
            "p3d": {
              "x": 2.5543,
              "y": 13.5401,
              "z": 15.9154
            }
          }
        ],
        "bonds": [
          {
            "atomIds": [
              0,
              2
            ],
            "bo": "SINGLE"
          },
          {
            "atomIds": [
              1,
              2
            ],
            "bo": "SINGLE"
          },
          {
            "atomIds": [
              3,
              0
            ],
            "bo": "SINGLE"
          },
          {
            "atomIds": [
              4,
              3
            ],
            "bo": "SINGLE"
          },
          {
            "atomIds": [
              5,
              3
            ],
            "bo": "SINGLE"
          },
          {
            "atomIds": [
              6,
              3
            ],
            "bo": "SINGLE"
          },
          {
            "atomIds": [
              7,
              6
            ],
            "bo": "SINGLE"
          },
          {
            "atomIds": [
              8,
              6
            ],
            "bo": "SINGLE"
          },
          {
            "atomIds": [
              9,
              1
            ],
            "bo": "SINGLE"
          },
          {
            "atomIds": [
              10,
              9
            ],
            "bo": "SINGLE"
          },
          {
            "atomIds": [
              11,
              9
            ],
            "bo": "SINGLE"
          },
          {
            "atomIds": [
              6,
              9
            ],
            "bo": "SINGLE"
          }
        ]
      },
      "vertexId": 91,
      "buildingBlockId": 12,
      "buildingBlockType": "FRAGMENT",
      "isRCV": false,
      "properties": {
        "ATTACHMENT_POINTS": "1#L6HPyrimidinylideneSubN:0:SINGLE:3.6986%10.1321%12.1775 2#L6HPyrimidinylideneSubN:0:SINGLE:4.7983%14.0099%14.7771 3#M6HPyrimidinylidene:1:SINGLE:6.0120%12.0516%12.7188 "
      },
      "uniquefyingPropertyKeys": [],
      "allowedMutationTypes": [
        "DELETE",
        "EXTEND",
        "CHANGEBRANCH",
        "CHANGELINK",
        "ADDLINK",
        "DELETELINK",
        "DELETECHAIN"
      ],
      "vertexType": "MolecularFragment"
    },
    {
      "lstAPs": [
        {
          "id": 177341,
          "atomPositionNumber": 0,
          "atomPositionNumberInMol": 48,
          "apClass": {
            "rule": "Xlig",
            "subClass": 1,
            "bndTyp": "SINGLE"
          },
          "dirVec": {
            "x": -0.102,
            "y": 0.0185,
            "z": -1.0265
          }
        }
      ],
      "lstSymAPs": [],
      "mol": {
        "atoms": [
          {
            "elSymbol": "S",
            "p3d": {
              "x": -0.3267,
              "y": 2.3403,
              "z": -1.0022
            }
          },
          {
            "elSymbol": "C",
            "p3d": {
              "x": -0.626,
              "y": 2.4866,
              "z": 0.7805
            }
          },
          {
            "elSymbol": "H",
            "p3d": {
              "x": 0.1766,
              "y": 3.089,
              "z": 1.2414
            }
          },
          {
            "elSymbol": "H",
            "p3d": {
              "x": -0.651,
              "y": 1.5065,
              "z": 1.2643
            }
          },
          {
            "elSymbol": "H",
            "p3d": {
              "x": -1.5658,
              "y": 2.981,
              "z": 0.9515
            }
          }
        ],
        "bonds": [
          {
            "atomIds": [
              1,
              2
            ],
            "bo": "SINGLE"
          },
          {
            "atomIds": [
              1,
              3
            ],
            "bo": "SINGLE"
          },
          {
            "atomIds": [
              1,
              4
            ],
            "bo": "SINGLE"
          },
          {
            "atomIds": [
              0,
              1
            ],
            "bo": "SINGLE"
          }
        ]
      },
      "vertexId": 85,
      "buildingBlockId": 63,
      "buildingBlockType": "FRAGMENT",
      "isRCV": false,
      "properties": {
        "ATTACHMENT_POINTS": "1#Xlig:1:SINGLE:-0.1020%0.0185%-1.0265 "
      },
      "uniquefyingPropertyKeys": [],
      "allowedMutationTypes": [
        "DELETE",
        "EXTEND",
        "CHANGEBRANCH",
        "CHANGELINK",
        "ADDLINK",
        "DELETELINK",
        "DELETECHAIN"
      ],
      "vertexType": "MolecularFragment"
    },
    {
      "lstAPs": [
        {
          "id": 177372,
          "atomPositionNumber": 0,
          "atomPositionNumberInMol": 20,
          "apClass": {
            "rule": "SubArM",
            "subClass": 1,
            "bndTyp": "SINGLE"
          },
          "dirVec": {
            "x": 0.3016,
            "y": 0.3831,
            "z": -0.6449
          }
        }
      ],
      "lstSymAPs": [],
      "mol": {
        "atoms": [
          {
            "elSymbol": "C",
            "p3d": {
              "x": 1.7096,
              "y": 0.5525,
              "z": -1.2136
            }
          },
          {
            "elSymbol": "C",
            "p3d": {
              "x": 4.2502,
              "y": 0.8767,
              "z": -2.2636
            }
          },
          {
            "elSymbol": "C",
            "p3d": {
              "x": 2.3368,
              "y": 1.7899,
              "z": -1.1199
            }
          },
          {
            "elSymbol": "C",
            "p3d": {
              "x": 2.344,
              "y": -0.5151,
              "z": -1.819
            }
          },
          {
            "elSymbol": "C",
            "p3d": {
              "x": 3.6162,
              "y": -0.3625,
              "z": -2.3439
            }
          },
          {
            "elSymbol": "C",
            "p3d": {
              "x": 3.6039,
              "y": 1.9353,
              "z": -1.6584
            }
          },
          {
            "elSymbol": "H",
            "p3d": {
              "x": 1.8411,
              "y": -1.493,
              "z": -1.8837
            }
          },
          {
            "elSymbol": "H",
            "p3d": {
              "x": 4.113,
              "y": -1.2006,
              "z": -2.8069
            }
          },
          {
            "elSymbol": "H",
            "p3d": {
              "x": 4.1107,
              "y": 2.9115,
              "z": -1.5913
            }
          },
          {
            "elSymbol": "H",
            "p3d": {
              "x": 5.2516,
              "y": 0.992,
              "z": -2.67
            }
          },
          {
            "elSymbol": "C",
            "p3d": {
              "x": 1.6301,
              "y": 2.9729,
              "z": -0.4606
            }
          },
          {
            "elSymbol": "H",
            "p3d": {
              "x": 2.3743,
              "y": 3.6775,
              "z": -0.0646
            }
          },
          {
            "elSymbol": "H",
            "p3d": {
              "x": 1.0016,
              "y": 2.6144,
              "z": 0.3512
            }
          },
          {
            "elSymbol": "H",
            "p3d": {
              "x": 1.0097,
              "y": 3.4845,
              "z": -1.1971
            }
          }
        ],
        "bonds": [
          {
            "atomIds": [
              0,
              3
            ],
            "bo": "SINGLE"
          },
          {
            "atomIds": [
              3,
              4
            ],
            "bo": "DOUBLE"
          },
          {
            "atomIds": [
              1,
              4
            ],
            "bo": "SINGLE"
          },
          {
            "atomIds": [
              1,
              5
            ],
            "bo": "DOUBLE"
          },
          {
            "atomIds": [
              2,
              5
            ],
            "bo": "SINGLE"
          },
          {
            "atomIds": [
              0,
              2
            ],
            "bo": "DOUBLE"
          },
          {
            "atomIds": [
              4,
              7
            ],
            "bo": "SINGLE"
          },
          {
            "atomIds": [
              5,
              8
            ],
            "bo": "SINGLE"
          },
          {
            "atomIds": [
              1,
              9
            ],
            "bo": "SINGLE"
          },
          {
            "atomIds": [
              3,
              6
            ],
            "bo": "SINGLE"
          },
          {
            "atomIds": [
              10,
              11
            ],
            "bo": "SINGLE"
          },
          {
            "atomIds": [
              10,
              12
            ],
            "bo": "SINGLE"
          },
          {
            "atomIds": [
              10,
              13
            ],
            "bo": "SINGLE"
          },
          {
            "atomIds": [
              2,
              10
            ],
            "bo": "SINGLE"
          }
        ]
      },
      "vertexId": 135330,
      "buildingBlockId": 36,
      "buildingBlockType": "FRAGMENT",
      "isRCV": false,
      "properties": {
        "ATTACHMENT_POINTS": "1#SubArM:1:SINGLE:0.3016%0.3831%-0.6449 "
      },
      "uniquefyingPropertyKeys": [],
      "allowedMutationTypes": [
        "DELETE",
        "EXTEND",
        "CHANGEBRANCH",
        "CHANGELINK",
        "ADDLINK",
        "DELETELINK",
        "DELETECHAIN"
      ],
      "vertexType": "MolecularFragment"
    },
    {
      "lstAPs": [
        {
          "id": 177373,
          "atomPositionNumber": 0,
          "atomPositionNumberInMol": 34,
          "apClass": {
            "rule": "SubArM",
            "subClass": 1,
            "bndTyp": "SINGLE"
          },
          "dirVec": {
            "x": 0.3016,
            "y": 0.3831,
            "z": -0.6449
          }
        }
      ],
      "lstSymAPs": [],
      "mol": {
        "atoms": [
          {
            "elSymbol": "C",
            "p3d": {
              "x": 1.7096,
              "y": 0.5525,
              "z": -1.2136
            }
          },
          {
            "elSymbol": "C",
            "p3d": {
              "x": 4.2502,
              "y": 0.8767,
              "z": -2.2636
            }
          },
          {
            "elSymbol": "C",
            "p3d": {
              "x": 2.3368,
              "y": 1.7899,
              "z": -1.1199
            }
          },
          {
            "elSymbol": "C",
            "p3d": {
              "x": 2.344,
              "y": -0.5151,
              "z": -1.819
            }
          },
          {
            "elSymbol": "C",
            "p3d": {
              "x": 3.6162,
              "y": -0.3625,
              "z": -2.3439
            }
          },
          {
            "elSymbol": "C",
            "p3d": {
              "x": 3.6039,
              "y": 1.9353,
              "z": -1.6584
            }
          },
          {
            "elSymbol": "H",
            "p3d": {
              "x": 1.8411,
              "y": -1.493,
              "z": -1.8837
            }
          },
          {
            "elSymbol": "H",
            "p3d": {
              "x": 4.113,
              "y": -1.2006,
              "z": -2.8069
            }
          },
          {
            "elSymbol": "H",
            "p3d": {
              "x": 4.1107,
              "y": 2.9115,
              "z": -1.5913
            }
          },
          {
            "elSymbol": "H",
            "p3d": {
              "x": 5.2516,
              "y": 0.992,
              "z": -2.67
            }
          },
          {
            "elSymbol": "C",
            "p3d": {
              "x": 1.6301,
              "y": 2.9729,
              "z": -0.4606
            }
          },
          {
            "elSymbol": "H",
            "p3d": {
              "x": 2.3743,
              "y": 3.6775,
              "z": -0.0646
            }
          },
          {
            "elSymbol": "H",
            "p3d": {
              "x": 1.0016,
              "y": 2.6144,
              "z": 0.3512
            }
          },
          {
            "elSymbol": "H",
            "p3d": {
              "x": 1.0097,
              "y": 3.4845,
              "z": -1.1971
            }
          }
        ],
        "bonds": [
          {
            "atomIds": [
              0,
              3
            ],
            "bo": "SINGLE"
          },
          {
            "atomIds": [
              3,
              4
            ],
            "bo": "DOUBLE"
          },
          {
            "atomIds": [
              1,
              4
            ],
            "bo": "SINGLE"
          },
          {
            "atomIds": [
              1,
              5
            ],
            "bo": "DOUBLE"
          },
          {
            "atomIds": [
              2,
              5
            ],
            "bo": "SINGLE"
          },
          {
            "atomIds": [
              0,
              2
            ],
            "bo": "DOUBLE"
          },
          {
            "atomIds": [
              4,
              7
            ],
            "bo": "SINGLE"
          },
          {
            "atomIds": [
              5,
              8
            ],
            "bo": "SINGLE"
          },
          {
            "atomIds": [
              1,
              9
            ],
            "bo": "SINGLE"
          },
          {
            "atomIds": [
              3,
              6
            ],
            "bo": "SINGLE"
          },
          {
            "atomIds": [
              10,
              11
            ],
            "bo": "SINGLE"
          },
          {
            "atomIds": [
              10,
              12
            ],
            "bo": "SINGLE"
          },
          {
            "atomIds": [
              10,
              13
            ],
            "bo": "SINGLE"
          },
          {
            "atomIds": [
              2,
              10
            ],
            "bo": "SINGLE"
          }
        ]
      },
      "vertexId": 135231,
      "buildingBlockId": 36,
      "buildingBlockType": "FRAGMENT",
      "isRCV": false,
      "properties": {
        "ATTACHMENT_POINTS": "1#SubArM:1:SINGLE:0.3016%0.3831%-0.6449 "
      },
      "uniquefyingPropertyKeys": [],
      "allowedMutationTypes": [
        "DELETE",
        "EXTEND",
        "CHANGEBRANCH",
        "CHANGELINK",
        "ADDLINK",
        "DELETELINK",
        "DELETECHAIN"
      ],
      "vertexType": "MolecularFragment"
    }
  ],
  "gEdges": [
    {
      "srcAPID": 177334,
      "trgAPID": 177337,
      "bondType": "SINGLE"
    },
    {
      "srcAPID": 177336,
      "trgAPID": 177340,
      "bondType": "SINGLE"
    },
    {
      "srcAPID": 177335,
      "trgAPID": 177341,
      "bondType": "SINGLE"
    },
    {
      "srcAPID": 177339,
      "trgAPID": 177372,
      "bondType": "SINGLE"
    },
    {
      "srcAPID": 177338,
      "trgAPID": 177373,
      "bondType": "SINGLE"
    }
  ],
  "gRings": [],
  "symVertices": [
    {
      "symIds": [
        135330,
        135231
      ]
    }
  ]
}

> <SMILES>
[Pt](C#O)(C#N)([C]1N(C([H])([H])C([H])([H])C(N1C=2C(=C(C(=C(C2C([H])([H])[H])[H])[H])[H])[H])([H])[H])C=3C(=C(C(=C(C3C([H])([H])[H])[H])[H])[H])[H])SC([H])([H])[H]

$$$$
