M00001687
  CDK     04222209153D

 39 40  0  0  0  0  0  0  0  0999 V2000
   -1.8630    0.2927    1.2030 Pt  0  0  0  0  0  0  0  0  0  0  0  0
   -3.7683    0.6408    1.5145 C   0  0  0  0  0  0  0  0  0  0  0  0
   -4.8848    0.7972    1.7019 O   0  0  0  0  0  0  0  0  0  0  0  0
   -0.7588    2.0451    0.8724 O   0  0  0  0  0  0  0  0  0  0  0  0
   -1.1887    3.1227    1.6677 C   0  0  0  0  0  0  0  0  0  0  0  0
   -0.4897    3.9486    1.4789 H   0  0  0  0  0  0  0  0  0  0  0  0
   -1.1701    2.8357    2.7265 H   0  0  0  0  0  0  0  0  0  0  0  0
   -2.2019    3.4143    1.3614 H   0  0  0  0  0  0  0  0  0  0  0  0
    0.3258   -0.0917    0.8063 P   0  0  0  0  0  0  0  0  0  0  0  0
    1.0107   -1.6664    1.1787 N   0  0  0  0  0  0  0  0  0  0  0  0
    2.1699   -1.4768    1.9873 C   0  0  0  0  0  0  0  0  0  0  0  0
    2.7512   -2.3405    2.2811 H   0  0  0  0  0  0  0  0  0  0  0  0
    2.4201   -0.1790    2.3232 C   0  0  0  0  0  0  0  0  0  0  0  0
    3.2369    0.1827    2.9336 H   0  0  0  0  0  0  0  0  0  0  0  0
    1.4839    0.7581    1.8016 N   0  0  0  0  0  0  0  0  0  0  0  0
    1.4948    1.7556    1.9925 H   0  0  0  0  0  0  0  0  0  0  0  0
    0.6748   -2.5811    0.9035 H   0  0  0  0  0  0  0  0  0  0  0  0
    0.5725    0.3230   -1.0240 C   0  0  0  0  0  0  0  0  0  0  0  0
    2.0135    0.1521   -3.0725 C   0  0  0  0  0  0  0  0  0  0  0  0
   -0.5104    0.0419   -3.2752 C   0  0  0  0  0  0  0  0  0  0  0  0
    0.8292   -0.4393   -3.8499 C   0  0  0  0  0  0  0  0  0  0  0  0
   -0.6237   -0.2788   -1.7742 C   0  0  0  0  0  0  0  0  0  0  0  0
    1.9125   -0.1682   -1.5705 C   0  0  0  0  0  0  0  0  0  0  0  0
    2.0461    1.2490   -3.2195 H   0  0  0  0  0  0  0  0  0  0  0  0
   -0.6158    1.1331   -3.4318 H   0  0  0  0  0  0  0  0  0  0  0  0
    0.8744   -1.5448   -3.8186 H   0  0  0  0  0  0  0  0  0  0  0  0
   -0.6752   -1.3808   -1.6519 H   0  0  0  0  0  0  0  0  0  0  0  0
    2.0323   -1.2618   -1.4297 H   0  0  0  0  0  0  0  0  0  0  0  0
    0.5209    1.4471   -1.1024 H   0  0  0  0  0  0  0  0  0  0  0  0
    2.9651   -0.2402   -3.4759 H   0  0  0  0  0  0  0  0  0  0  0  0
   -1.3486   -0.4284   -3.8224 H   0  0  0  0  0  0  0  0  0  0  0  0
    0.9023   -0.1597   -4.9174 H   0  0  0  0  0  0  0  0  0  0  0  0
   -1.5890    0.1291   -1.3868 H   0  0  0  0  0  0  0  0  0  0  0  0
    2.7603    0.3072   -1.0377 H   0  0  0  0  0  0  0  0  0  0  0  0
   -2.8307   -1.7790    1.4722 S   0  0  0  0  0  0  0  0  0  0  0  0
   -2.2137   -2.0883    3.1487 C   0  0  0  0  0  0  0  0  0  0  0  0
   -2.9926   -2.5846    3.7389 H   0  0  0  0  0  0  0  0  0  0  0  0
   -1.9406   -1.1503    3.6479 H   0  0  0  0  0  0  0  0  0  0  0  0
   -1.3314   -2.7361    3.1185 H   0  0  0  0  0  0  0  0  0  0  0  0
  2  3  3  0  0  0  0
  1  2  1  0  0  0  0
  5  6  1  0  0  0  0
  5  7  1  0  0  0  0
  5  8  1  0  0  0  0
  4  5  1  0  0  0  0
  1  4  1  0  0  0  0
 10  9  1  0  0  0  0
 11 10  1  0  0  0  0
 12 11  1  0  0  0  0
 13 11  2  0  0  0  0
 13 15  1  0  0  0  0
 14 13  1  0  0  0  0
 15  9  1  0  0  0  0
  1  9  1  0  0  0  0
 15 16  1  0  0  0  0
 10 17  1  0  0  0  0
 18 29  1  0  0  0  0
 18 22  1  0  0  0  0
 18 23  1  0  0  0  0
 19 24  1  0  0  0  0
 19 30  1  0  0  0  0
 19 21  1  0  0  0  0
 19 23  1  0  0  0  0
 20 25  1  0  0  0  0
 20 31  1  0  0  0  0
 20 22  1  0  0  0  0
 20 21  1  0  0  0  0
 21 26  1  0  0  0  0
 21 32  1  0  0  0  0
 22 27  1  0  0  0  0
 22 33  1  0  0  0  0
 23 28  1  0  0  0  0
 23 34  1  0  0  0  0
  9 18  1  0  0  0  0
 36 37  1  0  0  0  0
 36 38  1  0  0  0  0
 36 39  1  0  0  0  0
 35 36  1  0  0  0  0
  1 35  1  0  0  0  0
M  END
> <PM6_ENERGY>
-326.571

> <UID>
PFDLSBQXUBMGKC-IVMOWWJSNA-M

> <FITNESS>
1.14287

> <GCODE>
2298

> <GraphENC>
2298 72_1_0,80_65_1,98_1_1,85_64_1,43027_1_2,42544_1_2,42532_35_1, 72_0_80_0_SINGLE_Xlig:0_Xlig:1,72_2_98_1_SINGLE_scaff:0_MBisAminoPhosphine:1,72_1_85_0_SINGLE_Xlig:0_Xlig:1,98_3_43027_0_SINGLE_LCycloBisAminoPhospholeSubN:0_hyd:1,98_2_42544_0_SINGLE_LCycloBisAminoPhospholeSubN:0_hyd:1,98_0_42532_0_SINGLE_LBisAminoPhosphineSubR:0_SubRM:1, SymmetricSet [symIds=[43027, 42544]] 

> <GraphJson>
{
  "graphId": 2298,
  "gVertices": [
    {
      "lstAPs": [
        {
          "id": 57488,
          "atomPositionNumber": 0,
          "atomPositionNumberInMol": 0,
          "apClass": {
            "rule": "Xlig",
            "subClass": 0,
            "bndTyp": "SINGLE"
          },
          "dirVec": {
            "x": -2.3339,
            "y": -0.0087,
            "z": 0.8172
          }
        },
        {
          "id": 57489,
          "atomPositionNumber": 0,
          "atomPositionNumberInMol": 0,
          "apClass": {
            "rule": "Xlig",
            "subClass": 0,
            "bndTyp": "SINGLE"
          },
          "dirVec": {
            "x": 2.336,
            "y": -5.0E-4,
            "z": 0.829
          }
        },
        {
          "id": 57490,
          "atomPositionNumber": 0,
          "atomPositionNumberInMol": 0,
          "apClass": {
            "rule": "scaff",
            "subClass": 0,
            "bndTyp": "SINGLE"
          },
          "dirVec": {
            "x": -0.0095,
            "y": 0.0046,
            "z": -1.7113
          }
        }
      ],
      "lstSymAPs": [
        {
          "symIds": [
            0,
            1
          ]
        }
      ],
      "mol": {
        "atoms": [
          {
            "elSymbol": "Pt",
            "p3d": {
              "x": -0.0098,
              "y": 0.0049,
              "z": 0.6289
            }
          },
          {
            "elSymbol": "C",
            "p3d": {
              "x": -6.0E-4,
              "y": 0.0016,
              "z": 2.5609
            }
          },
          {
            "elSymbol": "O",
            "p3d": {
              "x": 0.0025,
              "y": -0.0041,
              "z": 3.6974
            }
          },
          {
            "elSymbol": "Du",
            "p3d": {
              "x": -0.007,
              "y": 1.0013,
              "z": 0.6372
            }
          },
          {
            "elSymbol": "Du",
            "p3d": {
              "x": -0.0014,
              "y": 0.9902,
              "z": 2.5698
            }
          }
        ],
        "bonds": [
          {
            "atomIds": [
              1,
              2
            ],
            "bo": "TRIPLE"
          },
          {
            "atomIds": [
              0,
              1
            ],
            "bo": "SINGLE"
          },
          {
            "atomIds": [
              3,
              0
            ],
            "bo": "SINGLE"
          },
          {
            "atomIds": [
              4,
              1
            ],
            "bo": "SINGLE"
          }
        ]
      },
      "vertexId": 72,
      "buildingBlockId": 0,
      "buildingBlockType": "SCAFFOLD",
      "isRCV": false,
      "properties": {
        "ATTACHMENT_POINTS": "1#Xlig:0:SINGLE:-2.3339%-0.0087%0.8172,Xlig:0:SINGLE:2.3360%-0.0005%0.8290,scaff:0:SINGLE:-0.0095%0.0046%-1.7113 "
      },
      "uniquefyingPropertyKeys": [],
      "allowedMutationTypes": [
        "DELETE",
        "EXTEND",
        "CHANGEBRANCH",
        "CHANGELINK",
        "ADDLINK",
        "DELETELINK",
        "DELETECHAIN"
      ],
      "vertexType": "MolecularFragment"
    },
    {
      "lstAPs": [
        {
          "id": 57491,
          "atomPositionNumber": 0,
          "atomPositionNumberInMol": 5,
          "apClass": {
            "rule": "Xlig",
            "subClass": 1,
            "bndTyp": "SINGLE"
          },
          "dirVec": {
            "x": -0.1753,
            "y": 0.0948,
            "z": -0.4464
          }
        }
      ],
      "lstSymAPs": [],
      "mol": {
        "atoms": [
          {
            "elSymbol": "O",
            "p3d": {
              "x": -0.3534,
              "y": 2.1044,
              "z": -0.7339
            }
          },
          {
            "elSymbol": "C",
            "p3d": {
              "x": -0.5345,
              "y": 2.7646,
              "z": 0.4801
            }
          },
          {
            "elSymbol": "H",
            "p3d": {
              "x": -0.3728,
              "y": 3.8337,
              "z": 0.2724
            }
          },
          {
            "elSymbol": "H",
            "p3d": {
              "x": 0.1816,
              "y": 2.4161,
              "z": 1.2384
            }
          },
          {
            "elSymbol": "H",
            "p3d": {
              "x": -1.553,
              "y": 2.6149,
              "z": 0.8489
            }
          }
        ],
        "bonds": [
          {
            "atomIds": [
              1,
              2
            ],
            "bo": "SINGLE"
          },
          {
            "atomIds": [
              1,
              3
            ],
            "bo": "SINGLE"
          },
          {
            "atomIds": [
              1,
              4
            ],
            "bo": "SINGLE"
          },
          {
            "atomIds": [
              0,
              1
            ],
            "bo": "SINGLE"
          }
        ]
      },
      "vertexId": 80,
      "buildingBlockId": 64,
      "buildingBlockType": "FRAGMENT",
      "isRCV": false,
      "properties": {
        "ATTACHMENT_POINTS": "1#Xlig:1:SINGLE:-0.1753%0.0948%-0.4464 "
      },
      "uniquefyingPropertyKeys": [],
      "allowedMutationTypes": [
        "DELETE",
        "EXTEND",
        "CHANGEBRANCH",
        "CHANGELINK",
        "ADDLINK",
        "DELETELINK",
        "DELETECHAIN"
      ],
      "vertexType": "MolecularFragment"
    },
    {
      "lstAPs": [
        {
          "id": 57492,
          "atomPositionNumber": 0,
          "atomPositionNumberInMol": 10,
          "apClass": {
            "rule": "LBisAminoPhosphineSubR",
            "subClass": 0,
            "bndTyp": "SINGLE"
          },
          "dirVec": {
            "x": 0.3903,
            "y": 10.7729,
            "z": 7.1334
          }
        },
        {
          "id": 57493,
          "atomPositionNumber": 0,
          "atomPositionNumberInMol": 10,
          "apClass": {
            "rule": "MBisAminoPhosphine",
            "subClass": 1,
            "bndTyp": "SINGLE"
          },
          "dirVec": {
            "x": 3.6116,
            "y": 11.0342,
            "z": 7.1611
          }
        },
        {
          "id": 57494,
          "atomPositionNumber": 1,
          "atomPositionNumberInMol": 11,
          "apClass": {
            "rule": "LCycloBisAminoPhospholeSubN",
            "subClass": 0,
            "bndTyp": "SINGLE"
          },
          "dirVec": {
            "x": 2.2148,
            "y": 8.0833,
            "z": 4.9044
          }
        },
        {
          "id": 57495,
          "atomPositionNumber": 6,
          "atomPositionNumberInMol": 16,
          "apClass": {
            "rule": "LCycloBisAminoPhospholeSubN",
            "subClass": 0,
            "bndTyp": "SINGLE"
          },
          "dirVec": {
            "x": 1.6922,
            "y": 13.2521,
            "z": 4.8571
          }
        }
      ],
      "lstSymAPs": [
        {
          "symIds": [
            2,
            3
          ]
        }
      ],
      "mol": {
        "atoms": [
          {
            "elSymbol": "P",
            "p3d": {
              "x": 1.8143,
              "y": 10.6855,
              "z": 5.9523
            }
          },
          {
            "elSymbol": "N",
            "p3d": {
              "x": 1.6265,
              "y": 9.4144,
              "z": 4.8677
            }
          },
          {
            "elSymbol": "C",
            "p3d": {
              "x": 1.0259,
              "y": 9.8892,
              "z": 3.6721
            }
          },
          {
            "elSymbol": "H",
            "p3d": {
              "x": 0.6933,
              "y": 9.2356,
              "z": 2.8689
            }
          },
          {
            "elSymbol": "C",
            "p3d": {
              "x": 0.9201,
              "y": 11.2066,
              "z": 3.6217
            }
          },
          {
            "elSymbol": "H",
            "p3d": {
              "x": 0.5137,
              "y": 11.7372,
              "z": 2.7731
            }
          },
          {
            "elSymbol": "N",
            "p3d": {
              "x": 1.3983,
              "y": 11.8325,
              "z": 4.7913
            }
          }
        ],
        "bonds": [
          {
            "atomIds": [
              1,
              0
            ],
            "bo": "SINGLE"
          },
          {
            "atomIds": [
              2,
              1
            ],
            "bo": "SINGLE"
          },
          {
            "atomIds": [
              3,
              2
            ],
            "bo": "SINGLE"
          },
          {
            "atomIds": [
              4,
              2
            ],
            "bo": "DOUBLE"
          },
          {
            "atomIds": [
              4,
              6
            ],
            "bo": "SINGLE"
          },
          {
            "atomIds": [
              5,
              4
            ],
            "bo": "SINGLE"
          },
          {
            "atomIds": [
              6,
              0
            ],
            "bo": "SINGLE"
          }
        ]
      },
      "vertexId": 98,
      "buildingBlockId": 0,
      "buildingBlockType": "FRAGMENT",
      "isRCV": false,
      "properties": {
        "ATTACHMENT_POINTS": "1#LBisAminoPhosphineSubR:0:SINGLE:0.3903%10.7729%7.1334,MBisAminoPhosphine:1:SINGLE:3.6116%11.0342%7.1611 2#LCycloBisAminoPhospholeSubN:0:SINGLE:2.2148%8.0833%4.9044 7#LCycloBisAminoPhospholeSubN:0:SINGLE:1.6922%13.2521%4.8571 "
      },
      "uniquefyingPropertyKeys": [],
      "allowedMutationTypes": [
        "DELETE",
        "EXTEND",
        "CHANGEBRANCH",
        "CHANGELINK",
        "ADDLINK",
        "DELETELINK",
        "DELETECHAIN"
      ],
      "vertexType": "MolecularFragment"
    },
    {
      "lstAPs": [
        {
          "id": 57496,
          "atomPositionNumber": 0,
          "atomPositionNumberInMol": 36,
          "apClass": {
            "rule": "Xlig",
            "subClass": 1,
            "bndTyp": "SINGLE"
          },
          "dirVec": {
            "x": -0.102,
            "y": 0.0185,
            "z": -1.0265
          }
        }
      ],
      "lstSymAPs": [],
      "mol": {
        "atoms": [
          {
            "elSymbol": "S",
            "p3d": {
              "x": -0.3267,
              "y": 2.3403,
              "z": -1.0022
            }
          },
          {
            "elSymbol": "C",
            "p3d": {
              "x": -0.626,
              "y": 2.4866,
              "z": 0.7805
            }
          },
          {
            "elSymbol": "H",
            "p3d": {
              "x": 0.1766,
              "y": 3.089,
              "z": 1.2414
            }
          },
          {
            "elSymbol": "H",
            "p3d": {
              "x": -0.651,
              "y": 1.5065,
              "z": 1.2643
            }
          },
          {
            "elSymbol": "H",
            "p3d": {
              "x": -1.5658,
              "y": 2.981,
              "z": 0.9515
            }
          }
        ],
        "bonds": [
          {
            "atomIds": [
              1,
              2
            ],
            "bo": "SINGLE"
          },
          {
            "atomIds": [
              1,
              3
            ],
            "bo": "SINGLE"
          },
          {
            "atomIds": [
              1,
              4
            ],
            "bo": "SINGLE"
          },
          {
            "atomIds": [
              0,
              1
            ],
            "bo": "SINGLE"
          }
        ]
      },
      "vertexId": 85,
      "buildingBlockId": 63,
      "buildingBlockType": "FRAGMENT",
      "isRCV": false,
      "properties": {
        "ATTACHMENT_POINTS": "1#Xlig:1:SINGLE:-0.1020%0.0185%-1.0265 "
      },
      "uniquefyingPropertyKeys": [],
      "allowedMutationTypes": [
        "DELETE",
        "EXTEND",
        "CHANGEBRANCH",
        "CHANGELINK",
        "ADDLINK",
        "DELETELINK",
        "DELETECHAIN"
      ],
      "vertexType": "MolecularFragment"
    },
    {
      "lstAPs": [
        {
          "id": 57533,
          "atomPositionNumber": 0,
          "atomPositionNumberInMol": 17,
          "apClass": {
            "rule": "hyd",
            "subClass": 1,
            "bndTyp": "SINGLE"
          },
          "dirVec": {
            "x": 0.4589,
            "y": -1.751,
            "z": 0.3869
          }
        }
      ],
      "lstSymAPs": [],
      "mol": {
        "atoms": [
          {
            "elSymbol": "H",
            "p3d": {
              "x": 0.1925,
              "y": -2.5024,
              "z": 1.1483
            }
          }
        ],
        "bonds": []
      },
      "vertexId": 43027,
      "buildingBlockId": 0,
      "buildingBlockType": "CAP",
      "isRCV": false,
      "properties": {
        "ATTACHMENT_POINTS": "1#hyd:1:SINGLE:0.4589%-1.7510%0.3869 "
      },
      "uniquefyingPropertyKeys": [],
      "allowedMutationTypes": [
        "DELETE",
        "EXTEND",
        "CHANGEBRANCH",
        "CHANGELINK",
        "ADDLINK",
        "DELETELINK",
        "DELETECHAIN"
      ],
      "vertexType": "MolecularFragment"
    },
    {
      "lstAPs": [
        {
          "id": 57534,
          "atomPositionNumber": 0,
          "atomPositionNumberInMol": 18,
          "apClass": {
            "rule": "hyd",
            "subClass": 1,
            "bndTyp": "SINGLE"
          },
          "dirVec": {
            "x": 0.4589,
            "y": -1.751,
            "z": 0.3869
          }
        }
      ],
      "lstSymAPs": [],
      "mol": {
        "atoms": [
          {
            "elSymbol": "H",
            "p3d": {
              "x": 0.1925,
              "y": -2.5024,
              "z": 1.1483
            }
          }
        ],
        "bonds": []
      },
      "vertexId": 42544,
      "buildingBlockId": 0,
      "buildingBlockType": "CAP",
      "isRCV": false,
      "properties": {
        "ATTACHMENT_POINTS": "1#hyd:1:SINGLE:0.4589%-1.7510%0.3869 "
      },
      "uniquefyingPropertyKeys": [],
      "allowedMutationTypes": [
        "DELETE",
        "EXTEND",
        "CHANGEBRANCH",
        "CHANGELINK",
        "ADDLINK",
        "DELETELINK",
        "DELETECHAIN"
      ],
      "vertexType": "MolecularFragment"
    },
    {
      "lstAPs": [
        {
          "id": 57535,
          "atomPositionNumber": 0,
          "atomPositionNumberInMol": 19,
          "apClass": {
            "rule": "SubRM",
            "subClass": 1,
            "bndTyp": "SINGLE"
          },
          "dirVec": {
            "x": 0.2917,
            "y": 0.3929,
            "z": -0.6365
          }
        }
      ],
      "lstSymAPs": [],
      "mol": {
        "atoms": [
          {
            "elSymbol": "C",
            "p3d": {
              "x": 1.7002,
              "y": 0.56,
              "z": -1.2045
            }
          },
          {
            "elSymbol": "C",
            "p3d": {
              "x": 3.564,
              "y": -0.7339,
              "z": -2.2652
            }
          },
          {
            "elSymbol": "C",
            "p3d": {
              "x": 2.9237,
              "y": 1.5034,
              "z": -3.1926
            }
          },
          {
            "elSymbol": "C",
            "p3d": {
              "x": 3.4145,
              "y": 0.0994,
              "z": -3.5498
            }
          },
          {
            "elSymbol": "C",
            "p3d": {
              "x": 1.5576,
              "y": 1.3879,
              "z": -2.5024
            }
          },
          {
            "elSymbol": "C",
            "p3d": {
              "x": 2.203,
              "y": -0.843,
              "z": -1.5702
            }
          },
          {
            "elSymbol": "H",
            "p3d": {
              "x": 4.3384,
              "y": -0.3241,
              "z": -1.6106
            }
          },
          {
            "elSymbol": "H",
            "p3d": {
              "x": 3.6361,
              "y": 2.0524,
              "z": -2.5991
            }
          },
          {
            "elSymbol": "H",
            "p3d": {
              "x": 2.7828,
              "y": -0.3911,
              "z": -4.2916
            }
          },
          {
            "elSymbol": "H",
            "p3d": {
              "x": 0.7737,
              "y": 0.9833,
              "z": -3.15
            }
          },
          {
            "elSymbol": "H",
            "p3d": {
              "x": 1.4815,
              "y": -1.3988,
              "z": -2.1783
            }
          },
          {
            "elSymbol": "H",
            "p3d": {
              "x": 2.3445,
              "y": 1.0609,
              "z": -0.4835
            }
          },
          {
            "elSymbol": "H",
            "p3d": {
              "x": 3.8429,
              "y": -1.7623,
              "z": -2.577
            }
          },
          {
            "elSymbol": "H",
            "p3d": {
              "x": 2.7428,
              "y": 2.0124,
              "z": -4.146
            }
          },
          {
            "elSymbol": "H",
            "p3d": {
              "x": 4.4291,
              "y": 0.2183,
              "z": -3.9628
            }
          },
          {
            "elSymbol": "H",
            "p3d": {
              "x": 1.2819,
              "y": 2.4034,
              "z": -2.1821
            }
          },
          {
            "elSymbol": "H",
            "p3d": {
              "x": 2.3734,
              "y": -1.3662,
              "z": -0.6149
            }
          }
        ],
        "bonds": [
          {
            "atomIds": [
              0,
              11
            ],
            "bo": "SINGLE"
          },
          {
            "atomIds": [
              0,
              4
            ],
            "bo": "SINGLE"
          },
          {
            "atomIds": [
              0,
              5
            ],
            "bo": "SINGLE"
          },
          {
            "atomIds": [
              1,
              6
            ],
            "bo": "SINGLE"
          },
          {
            "atomIds": [
              1,
              12
            ],
            "bo": "SINGLE"
          },
          {
            "atomIds": [
              1,
              3
            ],
            "bo": "SINGLE"
          },
          {
            "atomIds": [
              1,
              5
            ],
            "bo": "SINGLE"
          },
          {
            "atomIds": [
              2,
              7
            ],
            "bo": "SINGLE"
          },
          {
            "atomIds": [
              2,
              13
            ],
            "bo": "SINGLE"
          },
          {
            "atomIds": [
              2,
              4
            ],
            "bo": "SINGLE"
          },
          {
            "atomIds": [
              2,
              3
            ],
            "bo": "SINGLE"
          },
          {
            "atomIds": [
              3,
              8
            ],
            "bo": "SINGLE"
          },
          {
            "atomIds": [
              3,
              14
            ],
            "bo": "SINGLE"
          },
          {
            "atomIds": [
              4,
              9
            ],
            "bo": "SINGLE"
          },
          {
            "atomIds": [
              4,
              15
            ],
            "bo": "SINGLE"
          },
          {
            "atomIds": [
              5,
              10
            ],
            "bo": "SINGLE"
          },
          {
            "atomIds": [
              5,
              16
            ],
            "bo": "SINGLE"
          }
        ]
      },
      "vertexId": 42532,
      "buildingBlockId": 34,
      "buildingBlockType": "FRAGMENT",
      "isRCV": false,
      "properties": {
        "ATTACHMENT_POINTS": "1#SubRM:1:SINGLE:0.2917%0.3929%-0.6365 "
      },
      "uniquefyingPropertyKeys": [],
      "allowedMutationTypes": [
        "DELETE",
        "EXTEND",
        "CHANGEBRANCH",
        "CHANGELINK",
        "ADDLINK",
        "DELETELINK",
        "DELETECHAIN"
      ],
      "vertexType": "MolecularFragment"
    }
  ],
  "gEdges": [
    {
      "srcAPID": 57488,
      "trgAPID": 57491,
      "bondType": "SINGLE"
    },
    {
      "srcAPID": 57490,
      "trgAPID": 57493,
      "bondType": "SINGLE"
    },
    {
      "srcAPID": 57489,
      "trgAPID": 57496,
      "bondType": "SINGLE"
    },
    {
      "srcAPID": 57495,
      "trgAPID": 57533,
      "bondType": "SINGLE"
    },
    {
      "srcAPID": 57494,
      "trgAPID": 57534,
      "bondType": "SINGLE"
    },
    {
      "srcAPID": 57492,
      "trgAPID": 57535,
      "bondType": "SINGLE"
    }
  ],
  "gRings": [],
  "symVertices": [
    {
      "symIds": [
        43027,
        42544
      ]
    }
  ]
}

> <SMILES>
[Pt](C#O)(OC([H])([H])[H])([P]1(N(C([H])=C(N1[H])[H])[H])C2([H])C(C([H])([H])C(C([H])([H])C2([H])[H])([H])[H])([H])[H])SC([H])([H])[H]

$$$$
