M00010528
  CDK     04222212263D

 42 44  0  0  0  0  0  0  0  0999 V2000
   -2.5072   -0.9036    1.3403 Pt  0  0  0  0  0  0  0  0  0  0  0  0
   -4.4553   -0.9521    1.5664 C   0  0  0  0  0  0  0  0  0  0  0  0
   -5.5859   -0.9827    1.7061 O   0  0  0  0  0  0  0  0  0  0  0  0
   -2.4487    1.0732    1.4445 C   0  0  0  0  0  0  0  0  0  0  0  0
   -2.4298    2.2253    1.5294 N   0  0  0  0  0  0  0  0  0  0  0  0
   -0.2432   -0.7346    1.1753 P   0  0  0  0  0  0  0  0  0  0  0  0
    0.2708    0.1828   -0.2193 N   0  0  0  0  0  0  0  0  0  0  0  0
   -0.5417    0.4424   -1.3752 C   0  0  0  0  0  0  0  0  0  0  0  0
   -1.8455    0.0310   -1.6645 C   0  0  0  0  0  0  0  0  0  0  0  0
   -2.4457   -0.5850   -0.9857 H   0  0  0  0  0  0  0  0  0  0  0  0
   -2.3842    0.4375   -2.8895 C   0  0  0  0  0  0  0  0  0  0  0  0
   -3.4015    0.1375   -3.1459 H   0  0  0  0  0  0  0  0  0  0  0  0
   -1.6524    1.2203   -3.7965 C   0  0  0  0  0  0  0  0  0  0  0  0
   -2.1135    1.5180   -4.7371 H   0  0  0  0  0  0  0  0  0  0  0  0
   -0.3458    1.6227   -3.5094 C   0  0  0  0  0  0  0  0  0  0  0  0
    0.2209    2.2288   -4.2137 H   0  0  0  0  0  0  0  0  0  0  0  0
    0.2219    1.2325   -2.2979 C   0  0  0  0  0  0  0  0  0  0  0  0
    1.5314    1.4574   -1.7049 C   0  0  0  0  0  0  0  0  0  0  0  0
    2.6602    2.1423   -2.1455 C   0  0  0  0  0  0  0  0  0  0  0  0
    2.6557    2.6506   -3.1084 H   0  0  0  0  0  0  0  0  0  0  0  0
    3.7947    2.1640   -1.3279 C   0  0  0  0  0  0  0  0  0  0  0  0
    4.6851    2.6973   -1.6577 H   0  0  0  0  0  0  0  0  0  0  0  0
    3.8025    1.5096   -0.0882 C   0  0  0  0  0  0  0  0  0  0  0  0
    4.7032    1.5426    0.5261 H   0  0  0  0  0  0  0  0  0  0  0  0
    2.6838    0.8139    0.3844 C   0  0  0  0  0  0  0  0  0  0  0  0
    2.7277    0.3187    1.3478 H   0  0  0  0  0  0  0  0  0  0  0  0
    1.5484    0.7975   -0.4278 C   0  0  0  0  0  0  0  0  0  0  0  0
    0.4490   -3.0403   -0.2471 C   0  0  0  0  0  0  0  0  0  0  0  0
    0.6620   -2.3814    1.1041 C   0  0  0  0  0  0  0  0  0  0  0  0
   -0.6118   -3.2634   -0.4556 H   0  0  0  0  0  0  0  0  0  0  0  0
    0.8452   -2.4565   -1.0898 H   0  0  0  0  0  0  0  0  0  0  0  0
    0.9626   -4.0140   -0.2798 H   0  0  0  0  0  0  0  0  0  0  0  0
    0.2656   -3.0420    1.9116 H   0  0  0  0  0  0  0  0  0  0  0  0
    1.7427   -2.2461    1.3084 H   0  0  0  0  0  0  0  0  0  0  0  0
   -0.4791   -0.4069    3.8772 C   0  0  0  0  0  0  0  0  0  0  0  0
    0.3385    0.1514    2.7239 C   0  0  0  0  0  0  0  0  0  0  0  0
   -0.2526   -1.4576    4.1099 H   0  0  0  0  0  0  0  0  0  0  0  0
   -0.2685    0.1587    4.8001 H   0  0  0  0  0  0  0  0  0  0  0  0
   -1.5729   -0.3219    3.7248 H   0  0  0  0  0  0  0  0  0  0  0  0
    0.1729    1.2510    2.6211 H   0  0  0  0  0  0  0  0  0  0  0  0
    1.4257    0.0300    2.8943 H   0  0  0  0  0  0  0  0  0  0  0  0
   -2.7855   -3.2488    1.2715 Cl  0  0  0  0  0  0  0  0  0  0  0  0
  2  3  3  0  0  0  0
  1  2  1  0  0  0  0
  4  5  3  0  0  0  0
  1  4  1  0  0  0  0
  1  6  1  0  0  0  0
  8  7  1  0  0  0  0
  9  8  1  0  0  0  0
 10  9  1  0  0  0  0
 11  9  2  0  0  0  0
 12 11  1  0  0  0  0
 13 11  1  0  0  0  0
 14 13  1  0  0  0  0
 15 13  2  0  0  0  0
 16 15  1  0  0  0  0
 17  8  2  0  0  0  0
 17 15  1  0  0  0  0
 18 17  1  0  0  0  0
 18 19  1  0  0  0  0
 18 27  2  0  0  0  0
 20 19  1  0  0  0  0
 21 19  2  0  0  0  0
 22 21  1  0  0  0  0
 23 21  1  0  0  0  0
 24 23  1  0  0  0  0
 25 23  2  0  0  0  0
 25 27  1  0  0  0  0
 26 25  1  0  0  0  0
 27  7  1  0  0  0  0
  6  7  1  0  0  0  0
 28 29  1  0  0  0  0
 28 30  1  0  0  0  0
 28 31  1  0  0  0  0
 28 32  1  0  0  0  0
 29 33  1  0  0  0  0
 29 34  1  0  0  0  0
  6 29  1  0  0  0  0
 35 36  1  0  0  0  0
 35 37  1  0  0  0  0
 35 38  1  0  0  0  0
 35 39  1  0  0  0  0
 36 40  1  0  0  0  0
 36 41  1  0  0  0  0
  6 36  1  0  0  0  0
  1 42  1  0  0  0  0
M  END
> <PM6_ENERGY>
35.628

> <UID>
VZYHMHZFAOVKAH-GMPYTWNCNA-M

> <FITNESS>
1.13961

> <GCODE>
11539

> <GraphENC>
11539 72_1_0,81_66_1,101_4_1,88_67_1,235734_11_1,236341_32_1,235740_32_1, 72_0_81_0_SINGLE_Xlig:0_Xlig:1,72_2_101_3_SINGLE_scaff:0_MMonoAminoPhosphine:1,72_1_88_0_SINGLE_Xlig:0_Xlig:1,101_0_235734_0_SINGLE_LMonoAminoPhosphineN:0_LAminoPhosphineCycloN:1,101_2_236341_0_SINGLE_LMonoAminoPhosphineSubR:0_SubRS:1,101_1_235740_0_SINGLE_LMonoAminoPhosphineSubR:0_SubRS:1, SymmetricSet [symIds=[236341, 235740]] 

> <GraphJson>
{
  "graphId": 11539,
  "gVertices": [
    {
      "lstAPs": [
        {
          "id": 308571,
          "atomPositionNumber": 0,
          "atomPositionNumberInMol": 0,
          "apClass": {
            "rule": "Xlig",
            "subClass": 0,
            "bndTyp": "SINGLE"
          },
          "dirVec": {
            "x": -2.3339,
            "y": -0.0087,
            "z": 0.8172
          }
        },
        {
          "id": 308572,
          "atomPositionNumber": 0,
          "atomPositionNumberInMol": 0,
          "apClass": {
            "rule": "Xlig",
            "subClass": 0,
            "bndTyp": "SINGLE"
          },
          "dirVec": {
            "x": 2.336,
            "y": -5.0E-4,
            "z": 0.829
          }
        },
        {
          "id": 308573,
          "atomPositionNumber": 0,
          "atomPositionNumberInMol": 0,
          "apClass": {
            "rule": "scaff",
            "subClass": 0,
            "bndTyp": "SINGLE"
          },
          "dirVec": {
            "x": -0.0095,
            "y": 0.0046,
            "z": -1.7113
          }
        }
      ],
      "lstSymAPs": [
        {
          "symIds": [
            0,
            1
          ]
        }
      ],
      "mol": {
        "atoms": [
          {
            "elSymbol": "Pt",
            "p3d": {
              "x": -0.0098,
              "y": 0.0049,
              "z": 0.6289
            }
          },
          {
            "elSymbol": "C",
            "p3d": {
              "x": -6.0E-4,
              "y": 0.0016,
              "z": 2.5609
            }
          },
          {
            "elSymbol": "O",
            "p3d": {
              "x": 0.0025,
              "y": -0.0041,
              "z": 3.6974
            }
          },
          {
            "elSymbol": "Du",
            "p3d": {
              "x": -0.007,
              "y": 1.0013,
              "z": 0.6372
            }
          },
          {
            "elSymbol": "Du",
            "p3d": {
              "x": -0.0014,
              "y": 0.9902,
              "z": 2.5698
            }
          }
        ],
        "bonds": [
          {
            "atomIds": [
              1,
              2
            ],
            "bo": "TRIPLE"
          },
          {
            "atomIds": [
              0,
              1
            ],
            "bo": "SINGLE"
          },
          {
            "atomIds": [
              3,
              0
            ],
            "bo": "SINGLE"
          },
          {
            "atomIds": [
              4,
              1
            ],
            "bo": "SINGLE"
          }
        ]
      },
      "vertexId": 72,
      "buildingBlockId": 0,
      "buildingBlockType": "SCAFFOLD",
      "isRCV": false,
      "properties": {
        "ATTACHMENT_POINTS": "1#Xlig:0:SINGLE:-2.3339%-0.0087%0.8172,Xlig:0:SINGLE:2.3360%-0.0005%0.8290,scaff:0:SINGLE:-0.0095%0.0046%-1.7113 "
      },
      "uniquefyingPropertyKeys": [],
      "allowedMutationTypes": [
        "DELETE",
        "EXTEND",
        "CHANGEBRANCH",
        "CHANGELINK",
        "ADDLINK",
        "DELETELINK",
        "DELETECHAIN"
      ],
      "vertexType": "MolecularFragment"
    },
    {
      "lstAPs": [
        {
          "id": 308574,
          "atomPositionNumber": 0,
          "atomPositionNumberInMol": 5,
          "apClass": {
            "rule": "Xlig",
            "subClass": 1,
            "bndTyp": "SINGLE"
          },
          "dirVec": {
            "x": 0.0192,
            "y": -0.0048,
            "z": -0.5645
          }
        }
      ],
      "lstSymAPs": [],
      "mol": {
        "atoms": [
          {
            "elSymbol": "C",
            "p3d": {
              "x": -1.967,
              "y": -0.0075,
              "z": -0.4937
            }
          },
          {
            "elSymbol": "N",
            "p3d": {
              "x": -3.1263,
              "y": -0.0054,
              "z": -0.4354
            }
          },
          {
            "elSymbol": "Du",
            "p3d": {
              "x": -1.9744,
              "y": 0.9926,
              "z": -0.5036
            }
          }
        ],
        "bonds": [
          {
            "atomIds": [
              0,
              1
            ],
            "bo": "TRIPLE"
          },
          {
            "atomIds": [
              2,
              0
            ],
            "bo": "SINGLE"
          }
        ]
      },
      "vertexId": 81,
      "buildingBlockId": 65,
      "buildingBlockType": "FRAGMENT",
      "isRCV": false,
      "properties": {
        "ATTACHMENT_POINTS": "1#Xlig:1:SINGLE:0.0192%-0.0048%-0.5645 "
      },
      "uniquefyingPropertyKeys": [],
      "allowedMutationTypes": [
        "DELETE",
        "EXTEND",
        "CHANGEBRANCH",
        "CHANGELINK",
        "ADDLINK",
        "DELETELINK",
        "DELETECHAIN"
      ],
      "vertexType": "MolecularFragment"
    },
    {
      "lstAPs": [
        {
          "id": 308575,
          "atomPositionNumber": 0,
          "atomPositionNumberInMol": 8,
          "apClass": {
            "rule": "LMonoAminoPhosphineN",
            "subClass": 0,
            "bndTyp": "SINGLE"
          },
          "dirVec": {
            "x": 3.1471,
            "y": 10.0719,
            "z": 6.8843
          }
        },
        {
          "id": 308576,
          "atomPositionNumber": 0,
          "atomPositionNumberInMol": 8,
          "apClass": {
            "rule": "LMonoAminoPhosphineSubR",
            "subClass": 0,
            "bndTyp": "SINGLE"
          },
          "dirVec": {
            "x": 0.3842,
            "y": 9.4902,
            "z": 6.7015
          }
        },
        {
          "id": 308577,
          "atomPositionNumber": 0,
          "atomPositionNumberInMol": 8,
          "apClass": {
            "rule": "LMonoAminoPhosphineSubR",
            "subClass": 0,
            "bndTyp": "SINGLE"
          },
          "dirVec": {
            "x": 2.2197,
            "y": 7.8057,
            "z": 8.2724
          }
        },
        {
          "id": 308578,
          "atomPositionNumber": 0,
          "atomPositionNumberInMol": 8,
          "apClass": {
            "rule": "MMonoAminoPhosphine",
            "subClass": 1,
            "bndTyp": "SINGLE"
          },
          "dirVec": {
            "x": 2.6023,
            "y": 7.6121,
            "z": 4.8117
          }
        }
      ],
      "lstSymAPs": [
        {
          "symIds": [
            1,
            2
          ]
        }
      ],
      "mol": {
        "atoms": [
          {
            "elSymbol": "P",
            "p3d": {
              "x": 2.1045,
              "y": 8.7901,
              "z": 6.7495
            }
          }
        ],
        "bonds": []
      },
      "vertexId": 101,
      "buildingBlockId": 3,
      "buildingBlockType": "FRAGMENT",
      "isRCV": false,
      "properties": {
        "ATTACHMENT_POINTS": "1#LMonoAminoPhosphineN:0:SINGLE:3.1471%10.0719%6.8843,LMonoAminoPhosphineSubR:0:SINGLE:0.3842%9.4902%6.7015,LMonoAminoPhosphineSubR:0:SINGLE:2.2197%7.8057%8.2724,MMonoAminoPhosphine:1:SINGLE:2.6023%7.6121%4.8117 "
      },
      "uniquefyingPropertyKeys": [],
      "allowedMutationTypes": [
        "DELETE",
        "EXTEND",
        "CHANGEBRANCH",
        "CHANGELINK",
        "ADDLINK",
        "DELETELINK",
        "DELETECHAIN"
      ],
      "vertexType": "MolecularFragment"
    },
    {
      "lstAPs": [
        {
          "id": 308579,
          "atomPositionNumber": 0,
          "atomPositionNumberInMol": 44,
          "apClass": {
            "rule": "Xlig",
            "subClass": 1,
            "bndTyp": "SINGLE"
          },
          "dirVec": {
            "x": -0.0053,
            "y": -0.0027,
            "z": 0.63
          }
        }
      ],
      "lstSymAPs": [],
      "mol": {
        "atoms": [
          {
            "elSymbol": "Cl",
            "p3d": {
              "x": 2.3243,
              "y": -0.0063,
              "z": 0.8189
            }
          }
        ],
        "bonds": []
      },
      "vertexId": 88,
      "buildingBlockId": 66,
      "buildingBlockType": "FRAGMENT",
      "isRCV": false,
      "properties": {
        "ATTACHMENT_POINTS": "1#Xlig:1:SINGLE:-0.0053%-0.0027%0.6300 "
      },
      "uniquefyingPropertyKeys": [],
      "allowedMutationTypes": [
        "DELETE",
        "EXTEND",
        "CHANGEBRANCH",
        "CHANGELINK",
        "ADDLINK",
        "DELETELINK",
        "DELETECHAIN"
      ],
      "vertexType": "MolecularFragment"
    },
    {
      "lstAPs": [
        {
          "id": 308616,
          "atomPositionNumber": 0,
          "atomPositionNumberInMol": 9,
          "apClass": {
            "rule": "LAminoPhosphineCycloN",
            "subClass": 1,
            "bndTyp": "SINGLE"
          },
          "dirVec": {
            "x": 6.1199,
            "y": 9.1336,
            "z": -2.0435
          }
        }
      ],
      "lstSymAPs": [],
      "mol": {
        "atoms": [
          {
            "elSymbol": "N",
            "p3d": {
              "x": 5.8505,
              "y": 8.2355,
              "z": -3.4594
            }
          },
          {
            "elSymbol": "C",
            "p3d": {
              "x": 4.8225,
              "y": 7.2426,
              "z": -3.5412
            }
          },
          {
            "elSymbol": "C",
            "p3d": {
              "x": 4.1523,
              "y": 6.5371,
              "z": -2.5564
            }
          },
          {
            "elSymbol": "H",
            "p3d": {
              "x": 4.3784,
              "y": 6.7128,
              "z": -1.5122
            }
          },
          {
            "elSymbol": "C",
            "p3d": {
              "x": 3.2111,
              "y": 5.6125,
              "z": -2.9044
            }
          },
          {
            "elSymbol": "H",
            "p3d": {
              "x": 2.6898,
              "y": 5.0632,
              "z": -2.1205
            }
          },
          {
            "elSymbol": "C",
            "p3d": {
              "x": 2.8931,
              "y": 5.3499,
              "z": -4.2772
            }
          },
          {
            "elSymbol": "H",
            "p3d": {
              "x": 2.1461,
              "y": 4.6131,
              "z": -4.5621
            }
          },
          {
            "elSymbol": "C",
            "p3d": {
              "x": 3.5744,
              "y": 6.0736,
              "z": -5.2446
            }
          },
          {
            "elSymbol": "H",
            "p3d": {
              "x": 3.3488,
              "y": 5.9043,
              "z": -6.2871
            }
          },
          {
            "elSymbol": "C",
            "p3d": {
              "x": 4.5213,
              "y": 6.9735,
              "z": -4.8917
            }
          },
          {
            "elSymbol": "C",
            "p3d": {
              "x": 5.318,
              "y": 7.9347,
              "z": -5.6815
            }
          },
          {
            "elSymbol": "C",
            "p3d": {
              "x": 5.3868,
              "y": 8.1589,
              "z": -7.0529
            }
          },
          {
            "elSymbol": "H",
            "p3d": {
              "x": 4.7987,
              "y": 7.5735,
              "z": -7.7667
            }
          },
          {
            "elSymbol": "C",
            "p3d": {
              "x": 6.2214,
              "y": 9.1759,
              "z": -7.4935
            }
          },
          {
            "elSymbol": "H",
            "p3d": {
              "x": 6.2395,
              "y": 9.421,
              "z": -8.5556
            }
          },
          {
            "elSymbol": "C",
            "p3d": {
              "x": 7.018,
              "y": 9.8755,
              "z": -6.613
            }
          },
          {
            "elSymbol": "H",
            "p3d": {
              "x": 7.7039,
              "y": 10.6248,
              "z": -7.0211
            }
          },
          {
            "elSymbol": "C",
            "p3d": {
              "x": 6.9587,
              "y": 9.6342,
              "z": -5.2762
            }
          },
          {
            "elSymbol": "H",
            "p3d": {
              "x": 7.5802,
              "y": 10.2259,
              "z": -4.5813
            }
          },
          {
            "elSymbol": "C",
            "p3d": {
              "x": 6.1226,
              "y": 8.6531,
              "z": -4.7938
            }
          }
        ],
        "bonds": [
          {
            "atomIds": [
              1,
              0
            ],
            "bo": "SINGLE"
          },
          {
            "atomIds": [
              2,
              1
            ],
            "bo": "SINGLE"
          },
          {
            "atomIds": [
              3,
              2
            ],
            "bo": "SINGLE"
          },
          {
            "atomIds": [
              4,
              2
            ],
            "bo": "DOUBLE"
          },
          {
            "atomIds": [
              5,
              4
            ],
            "bo": "SINGLE"
          },
          {
            "atomIds": [
              6,
              4
            ],
            "bo": "SINGLE"
          },
          {
            "atomIds": [
              7,
              6
            ],
            "bo": "SINGLE"
          },
          {
            "atomIds": [
              8,
              6
            ],
            "bo": "DOUBLE"
          },
          {
            "atomIds": [
              9,
              8
            ],
            "bo": "SINGLE"
          },
          {
            "atomIds": [
              10,
              1
            ],
            "bo": "DOUBLE"
          },
          {
            "atomIds": [
              10,
              8
            ],
            "bo": "SINGLE"
          },
          {
            "atomIds": [
              11,
              10
            ],
            "bo": "SINGLE"
          },
          {
            "atomIds": [
              11,
              12
            ],
            "bo": "SINGLE"
          },
          {
            "atomIds": [
              11,
              20
            ],
            "bo": "DOUBLE"
          },
          {
            "atomIds": [
              13,
              12
            ],
            "bo": "SINGLE"
          },
          {
            "atomIds": [
              14,
              12
            ],
            "bo": "DOUBLE"
          },
          {
            "atomIds": [
              15,
              14
            ],
            "bo": "SINGLE"
          },
          {
            "atomIds": [
              16,
              14
            ],
            "bo": "SINGLE"
          },
          {
            "atomIds": [
              17,
              16
            ],
            "bo": "SINGLE"
          },
          {
            "atomIds": [
              18,
              16
            ],
            "bo": "DOUBLE"
          },
          {
            "atomIds": [
              18,
              20
            ],
            "bo": "SINGLE"
          },
          {
            "atomIds": [
              19,
              18
            ],
            "bo": "SINGLE"
          },
          {
            "atomIds": [
              20,
              0
            ],
            "bo": "SINGLE"
          }
        ]
      },
      "vertexId": 235734,
      "buildingBlockId": 10,
      "buildingBlockType": "FRAGMENT",
      "isRCV": false,
      "properties": {
        "ATTACHMENT_POINTS": "1#LAminoPhosphineCycloN:1:SINGLE:6.1199%9.1336%-2.0435 "
      },
      "uniquefyingPropertyKeys": [],
      "allowedMutationTypes": [
        "DELETE",
        "EXTEND",
        "CHANGEBRANCH",
        "CHANGELINK",
        "ADDLINK",
        "DELETELINK",
        "DELETECHAIN"
      ],
      "vertexType": "MolecularFragment"
    },
    {
      "lstAPs": [
        {
          "id": 308617,
          "atomPositionNumber": 1,
          "atomPositionNumberInMol": 31,
          "apClass": {
            "rule": "SubRS",
            "subClass": 1,
            "bndTyp": "SINGLE"
          },
          "dirVec": {
            "x": 0.2985,
            "y": 0.384,
            "z": -0.6258
          }
        }
      ],
      "lstSymAPs": [],
      "mol": {
        "atoms": [
          {
            "elSymbol": "C",
            "p3d": {
              "x": -1.0244,
              "y": -0.2225,
              "z": 1.3991
            }
          },
          {
            "elSymbol": "C",
            "p3d": {
              "x": 0.3973,
              "y": -0.042,
              "z": 0.8195
            }
          },
          {
            "elSymbol": "H",
            "p3d": {
              "x": -1.5635,
              "y": -0.9908,
              "z": 0.8263
            }
          },
          {
            "elSymbol": "H",
            "p3d": {
              "x": -0.941,
              "y": -0.535,
              "z": 2.446
            }
          },
          {
            "elSymbol": "H",
            "p3d": {
              "x": -1.5586,
              "y": 0.7335,
              "z": 1.3382
            }
          },
          {
            "elSymbol": "H",
            "p3d": {
              "x": 0.9335,
              "y": 0.7221,
              "z": 1.4011
            }
          },
          {
            "elSymbol": "H",
            "p3d": {
              "x": 0.927,
              "y": -1.0102,
              "z": 0.9001
            }
          }
        ],
        "bonds": [
          {
            "atomIds": [
              0,
              1
            ],
            "bo": "SINGLE"
          },
          {
            "atomIds": [
              0,
              2
            ],
            "bo": "SINGLE"
          },
          {
            "atomIds": [
              0,
              3
            ],
            "bo": "SINGLE"
          },
          {
            "atomIds": [
              0,
              4
            ],
            "bo": "SINGLE"
          },
          {
            "atomIds": [
              1,
              5
            ],
            "bo": "SINGLE"
          },
          {
            "atomIds": [
              1,
              6
            ],
            "bo": "SINGLE"
          }
        ]
      },
      "vertexId": 236341,
      "buildingBlockId": 31,
      "buildingBlockType": "FRAGMENT",
      "isRCV": false,
      "properties": {
        "ATTACHMENT_POINTS": "2#SubRS:1:SINGLE:0.2985%0.3840%-0.6258 "
      },
      "uniquefyingPropertyKeys": [],
      "allowedMutationTypes": [
        "DELETE",
        "EXTEND",
        "CHANGEBRANCH",
        "CHANGELINK",
        "ADDLINK",
        "DELETELINK",
        "DELETECHAIN"
      ],
      "vertexType": "MolecularFragment"
    },
    {
      "lstAPs": [
        {
          "id": 308618,
          "atomPositionNumber": 1,
          "atomPositionNumberInMol": 38,
          "apClass": {
            "rule": "SubRS",
            "subClass": 1,
            "bndTyp": "SINGLE"
          },
          "dirVec": {
            "x": 0.2985,
            "y": 0.384,
            "z": -0.6258
          }
        }
      ],
      "lstSymAPs": [],
      "mol": {
        "atoms": [
          {
            "elSymbol": "C",
            "p3d": {
              "x": -1.0244,
              "y": -0.2225,
              "z": 1.3991
            }
          },
          {
            "elSymbol": "C",
            "p3d": {
              "x": 0.3973,
              "y": -0.042,
              "z": 0.8195
            }
          },
          {
            "elSymbol": "H",
            "p3d": {
              "x": -1.5635,
              "y": -0.9908,
              "z": 0.8263
            }
          },
          {
            "elSymbol": "H",
            "p3d": {
              "x": -0.941,
              "y": -0.535,
              "z": 2.446
            }
          },
          {
            "elSymbol": "H",
            "p3d": {
              "x": -1.5586,
              "y": 0.7335,
              "z": 1.3382
            }
          },
          {
            "elSymbol": "H",
            "p3d": {
              "x": 0.9335,
              "y": 0.7221,
              "z": 1.4011
            }
          },
          {
            "elSymbol": "H",
            "p3d": {
              "x": 0.927,
              "y": -1.0102,
              "z": 0.9001
            }
          }
        ],
        "bonds": [
          {
            "atomIds": [
              0,
              1
            ],
            "bo": "SINGLE"
          },
          {
            "atomIds": [
              0,
              2
            ],
            "bo": "SINGLE"
          },
          {
            "atomIds": [
              0,
              3
            ],
            "bo": "SINGLE"
          },
          {
            "atomIds": [
              0,
              4
            ],
            "bo": "SINGLE"
          },
          {
            "atomIds": [
              1,
              5
            ],
            "bo": "SINGLE"
          },
          {
            "atomIds": [
              1,
              6
            ],
            "bo": "SINGLE"
          }
        ]
      },
      "vertexId": 235740,
      "buildingBlockId": 31,
      "buildingBlockType": "FRAGMENT",
      "isRCV": false,
      "properties": {
        "ATTACHMENT_POINTS": "2#SubRS:1:SINGLE:0.2985%0.3840%-0.6258 "
      },
      "uniquefyingPropertyKeys": [],
      "allowedMutationTypes": [
        "DELETE",
        "EXTEND",
        "CHANGEBRANCH",
        "CHANGELINK",
        "ADDLINK",
        "DELETELINK",
        "DELETECHAIN"
      ],
      "vertexType": "MolecularFragment"
    }
  ],
  "gEdges": [
    {
      "srcAPID": 308571,
      "trgAPID": 308574,
      "bondType": "SINGLE"
    },
    {
      "srcAPID": 308573,
      "trgAPID": 308578,
      "bondType": "SINGLE"
    },
    {
      "srcAPID": 308572,
      "trgAPID": 308579,
      "bondType": "SINGLE"
    },
    {
      "srcAPID": 308575,
      "trgAPID": 308616,
      "bondType": "SINGLE"
    },
    {
      "srcAPID": 308577,
      "trgAPID": 308617,
      "bondType": "SINGLE"
    },
    {
      "srcAPID": 308576,
      "trgAPID": 308618,
      "bondType": "SINGLE"
    }
  ],
  "gRings": [],
  "symVertices": [
    {
      "symIds": [
        236341,
        235740
      ]
    }
  ]
}

> <SMILES>
[Pt](C#O)(C#N)([P](N1C=2C([H])=C([H])C([H])=C([H])C2C=3C([H])=C([H])C([H])=C(C31)[H])(C(C([H])([H])[H])([H])[H])C(C([H])([H])[H])([H])[H])Cl

$$$$
