M00000621
  CDK     04222208523D

 63 69  0  0  0  0  0  0  0  0999 V2000
   -2.9054    0.1706    0.7351 Pt  0  0  0  0  0  0  0  0  0  0  0  0
   -4.8512    0.0221    0.9609 C   0  0  0  0  0  0  0  0  0  0  0  0
   -5.9815   -0.0490    1.0810 O   0  0  0  0  0  0  0  0  0  0  0  0
   -3.4804    2.2674   -0.0502 S   0  0  0  0  0  0  0  0  0  0  0  0
   -3.6030    1.7731   -1.7886 C   0  0  0  0  0  0  0  0  0  0  0  0
   -4.5721    2.0850   -2.1961 H   0  0  0  0  0  0  0  0  0  0  0  0
   -3.5111    0.6837   -1.9052 H   0  0  0  0  0  0  0  0  0  0  0  0
   -2.8115    2.2493   -2.3813 H   0  0  0  0  0  0  0  0  0  0  0  0
   -0.6718    0.4518    0.3835 P   0  0  0  0  0  0  0  0  0  0  0  0
   -0.3421   -0.0196   -1.2709 N   0  0  0  0  0  0  0  0  0  0  0  0
   -0.2699   -1.3845   -1.7344 C   0  0  0  0  0  0  0  0  0  0  0  0
   -0.4910   -2.5815   -1.0500 C   0  0  0  0  0  0  0  0  0  0  0  0
   -0.7896   -2.6252    0.0001 H   0  0  0  0  0  0  0  0  0  0  0  0
   -0.3320   -3.7695   -1.7680 C   0  0  0  0  0  0  0  0  0  0  0  0
   -0.5016   -4.7197   -1.2577 H   0  0  0  0  0  0  0  0  0  0  0  0
    0.0341   -3.7716   -3.1240 C   0  0  0  0  0  0  0  0  0  0  0  0
    0.1496   -4.7211   -3.6440 H   0  0  0  0  0  0  0  0  0  0  0  0
    0.2436   -2.5749   -3.8115 C   0  0  0  0  0  0  0  0  0  0  0  0
    0.5180   -2.5737   -4.8641 H   0  0  0  0  0  0  0  0  0  0  0  0
    0.0890   -1.3729   -3.1217 C   0  0  0  0  0  0  0  0  0  0  0  0
    0.1999    0.0159   -3.5375 C   0  0  0  0  0  0  0  0  0  0  0  0
    0.4915    0.6031   -4.7663 C   0  0  0  0  0  0  0  0  0  0  0  0
    0.7198   -0.0171   -5.6313 H   0  0  0  0  0  0  0  0  0  0  0  0
    0.4774    1.9969   -4.8651 C   0  0  0  0  0  0  0  0  0  0  0  0
    0.7062    2.4728   -5.8172 H   0  0  0  0  0  0  0  0  0  0  0  0
    0.1594    2.7915   -3.7542 C   0  0  0  0  0  0  0  0  0  0  0  0
    0.1371    3.8768   -3.8630 H   0  0  0  0  0  0  0  0  0  0  0  0
   -0.1375    2.2306   -2.5081 C   0  0  0  0  0  0  0  0  0  0  0  0
   -0.4061    2.8825   -1.6780 H   0  0  0  0  0  0  0  0  0  0  0  0
   -0.0930    0.8394   -2.3971 C   0  0  0  0  0  0  0  0  0  0  0  0
    0.0513    2.1169    0.6898 C   0  0  0  0  0  0  0  0  0  0  0  0
    1.1758    4.5819    1.3184 C   0  0  0  0  0  0  0  0  0  0  0  0
    1.3417    2.4178    0.2394 C   0  0  0  0  0  0  0  0  0  0  0  0
   -0.6712    3.0171    1.4740 C   0  0  0  0  0  0  0  0  0  0  0  0
   -0.1026    4.2615    1.7804 C   0  0  0  0  0  0  0  0  0  0  0  0
    1.9001    3.6596    0.5519 C   0  0  0  0  0  0  0  0  0  0  0  0
    1.9273    1.7114   -0.3559 H   0  0  0  0  0  0  0  0  0  0  0  0
   -1.6689    2.7889    1.8659 H   0  0  0  0  0  0  0  0  0  0  0  0
   -0.6628    4.9773    2.3819 H   0  0  0  0  0  0  0  0  0  0  0  0
    2.9017    3.9091    0.2034 H   0  0  0  0  0  0  0  0  0  0  0  0
    1.6152    5.5510    1.5586 H   0  0  0  0  0  0  0  0  0  0  0  0
    0.2962   -0.5599    1.4406 N   0  0  0  0  0  0  0  0  0  0  0  0
    1.5874   -1.1436    1.2107 C   0  0  0  0  0  0  0  0  0  0  0  0
    2.4346   -1.0612    0.1044 C   0  0  0  0  0  0  0  0  0  0  0  0
    2.1790   -0.5126   -0.7972 H   0  0  0  0  0  0  0  0  0  0  0  0
    3.6536   -1.7446    0.1730 C   0  0  0  0  0  0  0  0  0  0  0  0
    4.3308   -1.7021   -0.6808 H   0  0  0  0  0  0  0  0  0  0  0  0
    4.0235   -2.4833    1.3057 C   0  0  0  0  0  0  0  0  0  0  0  0
    4.9797   -3.0031    1.3178 H   0  0  0  0  0  0  0  0  0  0  0  0
    3.1793   -2.5621    2.4174 C   0  0  0  0  0  0  0  0  0  0  0  0
    3.4653   -3.1355    3.2971 H   0  0  0  0  0  0  0  0  0  0  0  0
    1.9600   -1.8914    2.3806 C   0  0  0  0  0  0  0  0  0  0  0  0
    0.8869   -1.7542    3.3535 C   0  0  0  0  0  0  0  0  0  0  0  0
    0.7221   -2.2399    4.6496 C   0  0  0  0  0  0  0  0  0  0  0  0
    1.4809   -2.8762    5.0997 H   0  0  0  0  0  0  0  0  0  0  0  0
   -0.4336   -1.8916    5.3519 C   0  0  0  0  0  0  0  0  0  0  0  0
   -0.5842   -2.2667    6.3627 H   0  0  0  0  0  0  0  0  0  0  0  0
   -1.4102   -1.0657    4.7724 C   0  0  0  0  0  0  0  0  0  0  0  0
   -2.3029   -0.8142    5.3465 H   0  0  0  0  0  0  0  0  0  0  0  0
   -1.2752   -0.5615    3.4750 C   0  0  0  0  0  0  0  0  0  0  0  0
   -2.0608    0.0743    3.0599 H   0  0  0  0  0  0  0  0  0  0  0  0
   -0.1275   -0.9294    2.7659 C   0  0  0  0  0  0  0  0  0  0  0  0
   -2.9678   -2.1000    1.5105 Cl  0  0  0  0  0  0  0  0  0  0  0  0
  2  3  3  0  0  0  0
  1  2  1  0  0  0  0
  5  6  1  0  0  0  0
  5  7  1  0  0  0  0
  5  8  1  0  0  0  0
  4  5  1  0  0  0  0
  1  4  1  0  0  0  0
  1  9  1  0  0  0  0
 11 10  1  0  0  0  0
 12 11  1  0  0  0  0
 13 12  1  0  0  0  0
 14 12  2  0  0  0  0
 15 14  1  0  0  0  0
 16 14  1  0  0  0  0
 17 16  1  0  0  0  0
 18 16  2  0  0  0  0
 19 18  1  0  0  0  0
 20 11  2  0  0  0  0
 20 18  1  0  0  0  0
 21 20  1  0  0  0  0
 21 22  1  0  0  0  0
 21 30  2  0  0  0  0
 23 22  1  0  0  0  0
 24 22  2  0  0  0  0
 25 24  1  0  0  0  0
 26 24  1  0  0  0  0
 27 26  1  0  0  0  0
 28 26  2  0  0  0  0
 28 30  1  0  0  0  0
 29 28  1  0  0  0  0
 30 10  1  0  0  0  0
  9 10  1  0  0  0  0
 31 34  1  0  0  0  0
 34 35  2  0  0  0  0
 32 35  1  0  0  0  0
 32 36  2  0  0  0  0
 33 36  1  0  0  0  0
 31 33  2  0  0  0  0
 35 39  1  0  0  0  0
 36 40  1  0  0  0  0
 32 41  1  0  0  0  0
 33 37  1  0  0  0  0
 34 38  1  0  0  0  0
  9 31  1  0  0  0  0
 43 42  1  0  0  0  0
 44 43  1  0  0  0  0
 45 44  1  0  0  0  0
 46 44  2  0  0  0  0
 47 46  1  0  0  0  0
 48 46  1  0  0  0  0
 49 48  1  0  0  0  0
 50 48  2  0  0  0  0
 51 50  1  0  0  0  0
 52 43  2  0  0  0  0
 52 50  1  0  0  0  0
 53 52  1  0  0  0  0
 53 54  1  0  0  0  0
 53 62  2  0  0  0  0
 55 54  1  0  0  0  0
 56 54  2  0  0  0  0
 57 56  1  0  0  0  0
 58 56  1  0  0  0  0
 59 58  1  0  0  0  0
 60 58  2  0  0  0  0
 60 62  1  0  0  0  0
 61 60  1  0  0  0  0
 62 42  1  0  0  0  0
  9 42  1  0  0  0  0
  1 63  1  0  0  0  0
M  END
> <PM6_ENERGY>
366.274

> <UID>
ISFRMMBMQPIIQY-IGPTZCFINA-L

> <FITNESS>
1.13888

> <GCODE>
1164

> <GraphENC>
1164 72_1_0,79_64_1,100_3_1,88_67_1,18805_11_1,18814_36_1,19387_11_1, 72_0_79_0_SINGLE_Xlig:0_Xlig:1,72_2_100_3_SINGLE_scaff:0_MBisAminoPhosphine:1,72_1_88_0_SINGLE_Xlig:0_Xlig:1,100_0_18805_0_SINGLE_LBisAminoPhosphineN:0_LAminoPhosphineCycloN:1,100_2_18814_0_SINGLE_LBisAminoPhosphineSubR:0_SubArS:1,100_1_19387_0_SINGLE_LBisAminoPhosphineN:0_LAminoPhosphineCycloN:1, SymmetricSet [symIds=[18805, 19387]] 

> <GraphJson>
{
  "graphId": 1164,
  "gVertices": [
    {
      "lstAPs": [
        {
          "id": 26787,
          "atomPositionNumber": 0,
          "atomPositionNumberInMol": 0,
          "apClass": {
            "rule": "Xlig",
            "subClass": 0,
            "bndTyp": "SINGLE"
          },
          "dirVec": {
            "x": -2.3339,
            "y": -0.0087,
            "z": 0.8172
          }
        },
        {
          "id": 26788,
          "atomPositionNumber": 0,
          "atomPositionNumberInMol": 0,
          "apClass": {
            "rule": "Xlig",
            "subClass": 0,
            "bndTyp": "SINGLE"
          },
          "dirVec": {
            "x": 2.336,
            "y": -5.0E-4,
            "z": 0.829
          }
        },
        {
          "id": 26789,
          "atomPositionNumber": 0,
          "atomPositionNumberInMol": 0,
          "apClass": {
            "rule": "scaff",
            "subClass": 0,
            "bndTyp": "SINGLE"
          },
          "dirVec": {
            "x": -0.0095,
            "y": 0.0046,
            "z": -1.7113
          }
        }
      ],
      "lstSymAPs": [
        {
          "symIds": [
            0,
            1
          ]
        }
      ],
      "mol": {
        "atoms": [
          {
            "elSymbol": "Pt",
            "p3d": {
              "x": -0.0098,
              "y": 0.0049,
              "z": 0.6289
            }
          },
          {
            "elSymbol": "C",
            "p3d": {
              "x": -6.0E-4,
              "y": 0.0016,
              "z": 2.5609
            }
          },
          {
            "elSymbol": "O",
            "p3d": {
              "x": 0.0025,
              "y": -0.0041,
              "z": 3.6974
            }
          },
          {
            "elSymbol": "Du",
            "p3d": {
              "x": -0.007,
              "y": 1.0013,
              "z": 0.6372
            }
          },
          {
            "elSymbol": "Du",
            "p3d": {
              "x": -0.0014,
              "y": 0.9902,
              "z": 2.5698
            }
          }
        ],
        "bonds": [
          {
            "atomIds": [
              1,
              2
            ],
            "bo": "TRIPLE"
          },
          {
            "atomIds": [
              0,
              1
            ],
            "bo": "SINGLE"
          },
          {
            "atomIds": [
              3,
              0
            ],
            "bo": "SINGLE"
          },
          {
            "atomIds": [
              4,
              1
            ],
            "bo": "SINGLE"
          }
        ]
      },
      "vertexId": 72,
      "buildingBlockId": 0,
      "buildingBlockType": "SCAFFOLD",
      "isRCV": false,
      "properties": {
        "ATTACHMENT_POINTS": "1#Xlig:0:SINGLE:-2.3339%-0.0087%0.8172,Xlig:0:SINGLE:2.3360%-0.0005%0.8290,scaff:0:SINGLE:-0.0095%0.0046%-1.7113 "
      },
      "uniquefyingPropertyKeys": [],
      "allowedMutationTypes": [
        "DELETE",
        "EXTEND",
        "CHANGEBRANCH",
        "CHANGELINK",
        "ADDLINK",
        "DELETELINK",
        "DELETECHAIN"
      ],
      "vertexType": "MolecularFragment"
    },
    {
      "lstAPs": [
        {
          "id": 26790,
          "atomPositionNumber": 0,
          "atomPositionNumberInMol": 5,
          "apClass": {
            "rule": "Xlig",
            "subClass": 1,
            "bndTyp": "SINGLE"
          },
          "dirVec": {
            "x": -0.102,
            "y": 0.0185,
            "z": -1.0265
          }
        }
      ],
      "lstSymAPs": [],
      "mol": {
        "atoms": [
          {
            "elSymbol": "S",
            "p3d": {
              "x": -0.3267,
              "y": 2.3403,
              "z": -1.0022
            }
          },
          {
            "elSymbol": "C",
            "p3d": {
              "x": -0.626,
              "y": 2.4866,
              "z": 0.7805
            }
          },
          {
            "elSymbol": "H",
            "p3d": {
              "x": 0.1766,
              "y": 3.089,
              "z": 1.2414
            }
          },
          {
            "elSymbol": "H",
            "p3d": {
              "x": -0.651,
              "y": 1.5065,
              "z": 1.2643
            }
          },
          {
            "elSymbol": "H",
            "p3d": {
              "x": -1.5658,
              "y": 2.981,
              "z": 0.9515
            }
          }
        ],
        "bonds": [
          {
            "atomIds": [
              1,
              2
            ],
            "bo": "SINGLE"
          },
          {
            "atomIds": [
              1,
              3
            ],
            "bo": "SINGLE"
          },
          {
            "atomIds": [
              1,
              4
            ],
            "bo": "SINGLE"
          },
          {
            "atomIds": [
              0,
              1
            ],
            "bo": "SINGLE"
          }
        ]
      },
      "vertexId": 79,
      "buildingBlockId": 63,
      "buildingBlockType": "FRAGMENT",
      "isRCV": false,
      "properties": {
        "ATTACHMENT_POINTS": "1#Xlig:1:SINGLE:-0.1020%0.0185%-1.0265 "
      },
      "uniquefyingPropertyKeys": [],
      "allowedMutationTypes": [
        "DELETE",
        "EXTEND",
        "CHANGEBRANCH",
        "CHANGELINK",
        "ADDLINK",
        "DELETELINK",
        "DELETECHAIN"
      ],
      "vertexType": "MolecularFragment"
    },
    {
      "lstAPs": [
        {
          "id": 26791,
          "atomPositionNumber": 0,
          "atomPositionNumberInMol": 10,
          "apClass": {
            "rule": "LBisAminoPhosphineN",
            "subClass": 0,
            "bndTyp": "SINGLE"
          },
          "dirVec": {
            "x": -1.9272,
            "y": -0.2351,
            "z": 5.6045
          }
        },
        {
          "id": 26792,
          "atomPositionNumber": 0,
          "atomPositionNumberInMol": 10,
          "apClass": {
            "rule": "LBisAminoPhosphineN",
            "subClass": 0,
            "bndTyp": "SINGLE"
          },
          "dirVec": {
            "x": -1.4136,
            "y": -2.2231,
            "z": 3.8983
          }
        },
        {
          "id": 26793,
          "atomPositionNumber": 0,
          "atomPositionNumberInMol": 10,
          "apClass": {
            "rule": "LBisAminoPhosphineSubR",
            "subClass": 0,
            "bndTyp": "SINGLE"
          },
          "dirVec": {
            "x": -3.1852,
            "y": -0.3594,
            "z": 3.1924
          }
        },
        {
          "id": 26794,
          "atomPositionNumber": 0,
          "atomPositionNumberInMol": 10,
          "apClass": {
            "rule": "MBisAminoPhosphine",
            "subClass": 1,
            "bndTyp": "SINGLE"
          },
          "dirVec": {
            "x": 0.1796,
            "y": 0.6567,
            "z": 3.3484
          }
        }
      ],
      "lstSymAPs": [
        {
          "symIds": [
            0,
            1
          ]
        }
      ],
      "mol": {
        "atoms": [
          {
            "elSymbol": "P",
            "p3d": {
              "x": -1.6038,
              "y": -0.5663,
              "z": 4.0324
            }
          }
        ],
        "bonds": []
      },
      "vertexId": 100,
      "buildingBlockId": 2,
      "buildingBlockType": "FRAGMENT",
      "isRCV": false,
      "properties": {
        "ATTACHMENT_POINTS": "1#LBisAminoPhosphineN:0:SINGLE:-1.9272%-0.2351%5.6045,LBisAminoPhosphineN:0:SINGLE:-1.4136%-2.2231%3.8983,LBisAminoPhosphineSubR:0:SINGLE:-3.1852%-0.3594%3.1924,MBisAminoPhosphine:1:SINGLE:0.1796%0.6567%3.3484 "
      },
      "uniquefyingPropertyKeys": [],
      "allowedMutationTypes": [
        "DELETE",
        "EXTEND",
        "CHANGEBRANCH",
        "CHANGELINK",
        "ADDLINK",
        "DELETELINK",
        "DELETECHAIN"
      ],
      "vertexType": "MolecularFragment"
    },
    {
      "lstAPs": [
        {
          "id": 26795,
          "atomPositionNumber": 0,
          "atomPositionNumberInMol": 64,
          "apClass": {
            "rule": "Xlig",
            "subClass": 1,
            "bndTyp": "SINGLE"
          },
          "dirVec": {
            "x": -0.0053,
            "y": -0.0027,
            "z": 0.63
          }
        }
      ],
      "lstSymAPs": [],
      "mol": {
        "atoms": [
          {
            "elSymbol": "Cl",
            "p3d": {
              "x": 2.3243,
              "y": -0.0063,
              "z": 0.8189
            }
          }
        ],
        "bonds": []
      },
      "vertexId": 88,
      "buildingBlockId": 66,
      "buildingBlockType": "FRAGMENT",
      "isRCV": false,
      "properties": {
        "ATTACHMENT_POINTS": "1#Xlig:1:SINGLE:-0.0053%-0.0027%0.6300 "
      },
      "uniquefyingPropertyKeys": [],
      "allowedMutationTypes": [
        "DELETE",
        "EXTEND",
        "CHANGEBRANCH",
        "CHANGELINK",
        "ADDLINK",
        "DELETELINK",
        "DELETECHAIN"
      ],
      "vertexType": "MolecularFragment"
    },
    {
      "lstAPs": [
        {
          "id": 26832,
          "atomPositionNumber": 0,
          "atomPositionNumberInMol": 11,
          "apClass": {
            "rule": "LAminoPhosphineCycloN",
            "subClass": 1,
            "bndTyp": "SINGLE"
          },
          "dirVec": {
            "x": 6.1199,
            "y": 9.1336,
            "z": -2.0435
          }
        }
      ],
      "lstSymAPs": [],
      "mol": {
        "atoms": [
          {
            "elSymbol": "N",
            "p3d": {
              "x": 5.8505,
              "y": 8.2355,
              "z": -3.4594
            }
          },
          {
            "elSymbol": "C",
            "p3d": {
              "x": 4.8225,
              "y": 7.2426,
              "z": -3.5412
            }
          },
          {
            "elSymbol": "C",
            "p3d": {
              "x": 4.1523,
              "y": 6.5371,
              "z": -2.5564
            }
          },
          {
            "elSymbol": "H",
            "p3d": {
              "x": 4.3784,
              "y": 6.7128,
              "z": -1.5122
            }
          },
          {
            "elSymbol": "C",
            "p3d": {
              "x": 3.2111,
              "y": 5.6125,
              "z": -2.9044
            }
          },
          {
            "elSymbol": "H",
            "p3d": {
              "x": 2.6898,
              "y": 5.0632,
              "z": -2.1205
            }
          },
          {
            "elSymbol": "C",
            "p3d": {
              "x": 2.8931,
              "y": 5.3499,
              "z": -4.2772
            }
          },
          {
            "elSymbol": "H",
            "p3d": {
              "x": 2.1461,
              "y": 4.6131,
              "z": -4.5621
            }
          },
          {
            "elSymbol": "C",
            "p3d": {
              "x": 3.5744,
              "y": 6.0736,
              "z": -5.2446
            }
          },
          {
            "elSymbol": "H",
            "p3d": {
              "x": 3.3488,
              "y": 5.9043,
              "z": -6.2871
            }
          },
          {
            "elSymbol": "C",
            "p3d": {
              "x": 4.5213,
              "y": 6.9735,
              "z": -4.8917
            }
          },
          {
            "elSymbol": "C",
            "p3d": {
              "x": 5.318,
              "y": 7.9347,
              "z": -5.6815
            }
          },
          {
            "elSymbol": "C",
            "p3d": {
              "x": 5.3868,
              "y": 8.1589,
              "z": -7.0529
            }
          },
          {
            "elSymbol": "H",
            "p3d": {
              "x": 4.7987,
              "y": 7.5735,
              "z": -7.7667
            }
          },
          {
            "elSymbol": "C",
            "p3d": {
              "x": 6.2214,
              "y": 9.1759,
              "z": -7.4935
            }
          },
          {
            "elSymbol": "H",
            "p3d": {
              "x": 6.2395,
              "y": 9.421,
              "z": -8.5556
            }
          },
          {
            "elSymbol": "C",
            "p3d": {
              "x": 7.018,
              "y": 9.8755,
              "z": -6.613
            }
          },
          {
            "elSymbol": "H",
            "p3d": {
              "x": 7.7039,
              "y": 10.6248,
              "z": -7.0211
            }
          },
          {
            "elSymbol": "C",
            "p3d": {
              "x": 6.9587,
              "y": 9.6342,
              "z": -5.2762
            }
          },
          {
            "elSymbol": "H",
            "p3d": {
              "x": 7.5802,
              "y": 10.2259,
              "z": -4.5813
            }
          },
          {
            "elSymbol": "C",
            "p3d": {
              "x": 6.1226,
              "y": 8.6531,
              "z": -4.7938
            }
          }
        ],
        "bonds": [
          {
            "atomIds": [
              1,
              0
            ],
            "bo": "SINGLE"
          },
          {
            "atomIds": [
              2,
              1
            ],
            "bo": "SINGLE"
          },
          {
            "atomIds": [
              3,
              2
            ],
            "bo": "SINGLE"
          },
          {
            "atomIds": [
              4,
              2
            ],
            "bo": "DOUBLE"
          },
          {
            "atomIds": [
              5,
              4
            ],
            "bo": "SINGLE"
          },
          {
            "atomIds": [
              6,
              4
            ],
            "bo": "SINGLE"
          },
          {
            "atomIds": [
              7,
              6
            ],
            "bo": "SINGLE"
          },
          {
            "atomIds": [
              8,
              6
            ],
            "bo": "DOUBLE"
          },
          {
            "atomIds": [
              9,
              8
            ],
            "bo": "SINGLE"
          },
          {
            "atomIds": [
              10,
              1
            ],
            "bo": "DOUBLE"
          },
          {
            "atomIds": [
              10,
              8
            ],
            "bo": "SINGLE"
          },
          {
            "atomIds": [
              11,
              10
            ],
            "bo": "SINGLE"
          },
          {
            "atomIds": [
              11,
              12
            ],
            "bo": "SINGLE"
          },
          {
            "atomIds": [
              11,
              20
            ],
            "bo": "DOUBLE"
          },
          {
            "atomIds": [
              13,
              12
            ],
            "bo": "SINGLE"
          },
          {
            "atomIds": [
              14,
              12
            ],
            "bo": "DOUBLE"
          },
          {
            "atomIds": [
              15,
              14
            ],
            "bo": "SINGLE"
          },
          {
            "atomIds": [
              16,
              14
            ],
            "bo": "SINGLE"
          },
          {
            "atomIds": [
              17,
              16
            ],
            "bo": "SINGLE"
          },
          {
            "atomIds": [
              18,
              16
            ],
            "bo": "DOUBLE"
          },
          {
            "atomIds": [
              18,
              20
            ],
            "bo": "SINGLE"
          },
          {
            "atomIds": [
              19,
              18
            ],
            "bo": "SINGLE"
          },
          {
            "atomIds": [
              20,
              0
            ],
            "bo": "SINGLE"
          }
        ]
      },
      "vertexId": 18805,
      "buildingBlockId": 10,
      "buildingBlockType": "FRAGMENT",
      "isRCV": false,
      "properties": {
        "ATTACHMENT_POINTS": "1#LAminoPhosphineCycloN:1:SINGLE:6.1199%9.1336%-2.0435 "
      },
      "uniquefyingPropertyKeys": [],
      "allowedMutationTypes": [
        "DELETE",
        "EXTEND",
        "CHANGEBRANCH",
        "CHANGELINK",
        "ADDLINK",
        "DELETELINK",
        "DELETECHAIN"
      ],
      "vertexType": "MolecularFragment"
    },
    {
      "lstAPs": [
        {
          "id": 26833,
          "atomPositionNumber": 0,
          "atomPositionNumberInMol": 32,
          "apClass": {
            "rule": "SubArS",
            "subClass": 1,
            "bndTyp": "SINGLE"
          },
          "dirVec": {
            "x": 0.2973,
            "y": 0.3873,
            "z": -0.6389
          }
        }
      ],
      "lstSymAPs": [],
      "mol": {
        "atoms": [
          {
            "elSymbol": "C",
            "p3d": {
              "x": 1.6995,
              "y": 0.5593,
              "z": -1.2083
            }
          },
          {
            "elSymbol": "C",
            "p3d": {
              "x": 4.2563,
              "y": 0.8754,
              "z": -2.2592
            }
          },
          {
            "elSymbol": "C",
            "p3d": {
              "x": 2.3334,
              "y": 1.79,
              "z": -1.1338
            }
          },
          {
            "elSymbol": "C",
            "p3d": {
              "x": 2.3422,
              "y": -0.5107,
              "z": -1.8125
            }
          },
          {
            "elSymbol": "C",
            "p3d": {
              "x": 3.612,
              "y": -0.3527,
              "z": -2.3321
            }
          },
          {
            "elSymbol": "C",
            "p3d": {
              "x": 3.6062,
              "y": 1.9513,
              "z": -1.6526
            }
          },
          {
            "elSymbol": "H",
            "p3d": {
              "x": 1.833,
              "y": 2.6461,
              "z": -0.6488
            }
          },
          {
            "elSymbol": "H",
            "p3d": {
              "x": 1.8361,
              "y": -1.4773,
              "z": -1.887
            }
          },
          {
            "elSymbol": "H",
            "p3d": {
              "x": 4.115,
              "y": -1.2043,
              "z": -2.8152
            }
          },
          {
            "elSymbol": "H",
            "p3d": {
              "x": 4.1097,
              "y": 2.9214,
              "z": -1.5842
            }
          },
          {
            "elSymbol": "H",
            "p3d": {
              "x": 5.2498,
              "y": 0.9926,
              "z": -2.665
            }
          }
        ],
        "bonds": [
          {
            "atomIds": [
              0,
              3
            ],
            "bo": "SINGLE"
          },
          {
            "atomIds": [
              3,
              4
            ],
            "bo": "DOUBLE"
          },
          {
            "atomIds": [
              1,
              4
            ],
            "bo": "SINGLE"
          },
          {
            "atomIds": [
              1,
              5
            ],
            "bo": "DOUBLE"
          },
          {
            "atomIds": [
              2,
              5
            ],
            "bo": "SINGLE"
          },
          {
            "atomIds": [
              0,
              2
            ],
            "bo": "DOUBLE"
          },
          {
            "atomIds": [
              4,
              8
            ],
            "bo": "SINGLE"
          },
          {
            "atomIds": [
              5,
              9
            ],
            "bo": "SINGLE"
          },
          {
            "atomIds": [
              1,
              10
            ],
            "bo": "SINGLE"
          },
          {
            "atomIds": [
              2,
              6
            ],
            "bo": "SINGLE"
          },
          {
            "atomIds": [
              3,
              7
            ],
            "bo": "SINGLE"
          }
        ]
      },
      "vertexId": 18814,
      "buildingBlockId": 35,
      "buildingBlockType": "FRAGMENT",
      "isRCV": false,
      "properties": {
        "ATTACHMENT_POINTS": "1#SubArS:1:SINGLE:0.2973%0.3873%-0.6389 "
      },
      "uniquefyingPropertyKeys": [],
      "allowedMutationTypes": [
        "DELETE",
        "EXTEND",
        "CHANGEBRANCH",
        "CHANGELINK",
        "ADDLINK",
        "DELETELINK",
        "DELETECHAIN"
      ],
      "vertexType": "MolecularFragment"
    },
    {
      "lstAPs": [
        {
          "id": 26834,
          "atomPositionNumber": 0,
          "atomPositionNumberInMol": 43,
          "apClass": {
            "rule": "LAminoPhosphineCycloN",
            "subClass": 1,
            "bndTyp": "SINGLE"
          },
          "dirVec": {
            "x": 6.1199,
            "y": 9.1336,
            "z": -2.0435
          }
        }
      ],
      "lstSymAPs": [],
      "mol": {
        "atoms": [
          {
            "elSymbol": "N",
            "p3d": {
              "x": 5.8505,
              "y": 8.2355,
              "z": -3.4594
            }
          },
          {
            "elSymbol": "C",
            "p3d": {
              "x": 4.8225,
              "y": 7.2426,
              "z": -3.5412
            }
          },
          {
            "elSymbol": "C",
            "p3d": {
              "x": 4.1523,
              "y": 6.5371,
              "z": -2.5564
            }
          },
          {
            "elSymbol": "H",
            "p3d": {
              "x": 4.3784,
              "y": 6.7128,
              "z": -1.5122
            }
          },
          {
            "elSymbol": "C",
            "p3d": {
              "x": 3.2111,
              "y": 5.6125,
              "z": -2.9044
            }
          },
          {
            "elSymbol": "H",
            "p3d": {
              "x": 2.6898,
              "y": 5.0632,
              "z": -2.1205
            }
          },
          {
            "elSymbol": "C",
            "p3d": {
              "x": 2.8931,
              "y": 5.3499,
              "z": -4.2772
            }
          },
          {
            "elSymbol": "H",
            "p3d": {
              "x": 2.1461,
              "y": 4.6131,
              "z": -4.5621
            }
          },
          {
            "elSymbol": "C",
            "p3d": {
              "x": 3.5744,
              "y": 6.0736,
              "z": -5.2446
            }
          },
          {
            "elSymbol": "H",
            "p3d": {
              "x": 3.3488,
              "y": 5.9043,
              "z": -6.2871
            }
          },
          {
            "elSymbol": "C",
            "p3d": {
              "x": 4.5213,
              "y": 6.9735,
              "z": -4.8917
            }
          },
          {
            "elSymbol": "C",
            "p3d": {
              "x": 5.318,
              "y": 7.9347,
              "z": -5.6815
            }
          },
          {
            "elSymbol": "C",
            "p3d": {
              "x": 5.3868,
              "y": 8.1589,
              "z": -7.0529
            }
          },
          {
            "elSymbol": "H",
            "p3d": {
              "x": 4.7987,
              "y": 7.5735,
              "z": -7.7667
            }
          },
          {
            "elSymbol": "C",
            "p3d": {
              "x": 6.2214,
              "y": 9.1759,
              "z": -7.4935
            }
          },
          {
            "elSymbol": "H",
            "p3d": {
              "x": 6.2395,
              "y": 9.421,
              "z": -8.5556
            }
          },
          {
            "elSymbol": "C",
            "p3d": {
              "x": 7.018,
              "y": 9.8755,
              "z": -6.613
            }
          },
          {
            "elSymbol": "H",
            "p3d": {
              "x": 7.7039,
              "y": 10.6248,
              "z": -7.0211
            }
          },
          {
            "elSymbol": "C",
            "p3d": {
              "x": 6.9587,
              "y": 9.6342,
              "z": -5.2762
            }
          },
          {
            "elSymbol": "H",
            "p3d": {
              "x": 7.5802,
              "y": 10.2259,
              "z": -4.5813
            }
          },
          {
            "elSymbol": "C",
            "p3d": {
              "x": 6.1226,
              "y": 8.6531,
              "z": -4.7938
            }
          }
        ],
        "bonds": [
          {
            "atomIds": [
              1,
              0
            ],
            "bo": "SINGLE"
          },
          {
            "atomIds": [
              2,
              1
            ],
            "bo": "SINGLE"
          },
          {
            "atomIds": [
              3,
              2
            ],
            "bo": "SINGLE"
          },
          {
            "atomIds": [
              4,
              2
            ],
            "bo": "DOUBLE"
          },
          {
            "atomIds": [
              5,
              4
            ],
            "bo": "SINGLE"
          },
          {
            "atomIds": [
              6,
              4
            ],
            "bo": "SINGLE"
          },
          {
            "atomIds": [
              7,
              6
            ],
            "bo": "SINGLE"
          },
          {
            "atomIds": [
              8,
              6
            ],
            "bo": "DOUBLE"
          },
          {
            "atomIds": [
              9,
              8
            ],
            "bo": "SINGLE"
          },
          {
            "atomIds": [
              10,
              1
            ],
            "bo": "DOUBLE"
          },
          {
            "atomIds": [
              10,
              8
            ],
            "bo": "SINGLE"
          },
          {
            "atomIds": [
              11,
              10
            ],
            "bo": "SINGLE"
          },
          {
            "atomIds": [
              11,
              12
            ],
            "bo": "SINGLE"
          },
          {
            "atomIds": [
              11,
              20
            ],
            "bo": "DOUBLE"
          },
          {
            "atomIds": [
              13,
              12
            ],
            "bo": "SINGLE"
          },
          {
            "atomIds": [
              14,
              12
            ],
            "bo": "DOUBLE"
          },
          {
            "atomIds": [
              15,
              14
            ],
            "bo": "SINGLE"
          },
          {
            "atomIds": [
              16,
              14
            ],
            "bo": "SINGLE"
          },
          {
            "atomIds": [
              17,
              16
            ],
            "bo": "SINGLE"
          },
          {
            "atomIds": [
              18,
              16
            ],
            "bo": "DOUBLE"
          },
          {
            "atomIds": [
              18,
              20
            ],
            "bo": "SINGLE"
          },
          {
            "atomIds": [
              19,
              18
            ],
            "bo": "SINGLE"
          },
          {
            "atomIds": [
              20,
              0
            ],
            "bo": "SINGLE"
          }
        ]
      },
      "vertexId": 19387,
      "buildingBlockId": 10,
      "buildingBlockType": "FRAGMENT",
      "isRCV": false,
      "properties": {
        "ATTACHMENT_POINTS": "1#LAminoPhosphineCycloN:1:SINGLE:6.1199%9.1336%-2.0435 "
      },
      "uniquefyingPropertyKeys": [],
      "allowedMutationTypes": [
        "DELETE",
        "EXTEND",
        "CHANGEBRANCH",
        "CHANGELINK",
        "ADDLINK",
        "DELETELINK",
        "DELETECHAIN"
      ],
      "vertexType": "MolecularFragment"
    }
  ],
  "gEdges": [
    {
      "srcAPID": 26787,
      "trgAPID": 26790,
      "bondType": "SINGLE"
    },
    {
      "srcAPID": 26789,
      "trgAPID": 26794,
      "bondType": "SINGLE"
    },
    {
      "srcAPID": 26788,
      "trgAPID": 26795,
      "bondType": "SINGLE"
    },
    {
      "srcAPID": 26791,
      "trgAPID": 26832,
      "bondType": "SINGLE"
    },
    {
      "srcAPID": 26793,
      "trgAPID": 26833,
      "bondType": "SINGLE"
    },
    {
      "srcAPID": 26792,
      "trgAPID": 26834,
      "bondType": "SINGLE"
    }
  ],
  "gRings": [],
  "symVertices": [
    {
      "symIds": [
        18805,
        19387
      ]
    }
  ]
}

> <SMILES>
[Pt](C#O)(SC([H])([H])[H])([P](N1C=2C([H])=C([H])C([H])=C([H])C2C=3C([H])=C([H])C([H])=C(C31)[H])(C=4C(=C(C(=C(C4[H])[H])[H])[H])[H])N5C=6C([H])=C([H])C([H])=C([H])C6C=7C([H])=C([H])C([H])=C(C75)[H])Cl

$$$$
