M00003608
  CDK     04222210003D

 52 55  0  0  0  0  0  0  0  0999 V2000
   -3.1454    0.2254    0.8504 Pt  0  0  0  0  0  0  0  0  0  0  0  0
   -5.0040    0.4678    1.3971 C   0  0  0  0  0  0  0  0  0  0  0  0
   -6.0792    0.6543    1.7380 O   0  0  0  0  0  0  0  0  0  0  0  0
   -2.3035    2.0851    1.1647 O   0  0  0  0  0  0  0  0  0  0  0  0
   -2.4727    2.5035    2.5045 C   0  0  0  0  0  0  0  0  0  0  0  0
   -1.9079    3.4399    2.6012 H   0  0  0  0  0  0  0  0  0  0  0  0
   -2.0724    1.7463    3.1909 H   0  0  0  0  0  0  0  0  0  0  0  0
   -3.5383    2.6812    2.6928 H   0  0  0  0  0  0  0  0  0  0  0  0
   -0.9584    0.2837    0.3412 P   0  0  0  0  0  0  0  0  0  0  0  0
   -0.3052   -1.2437    0.0399 O   0  0  0  0  0  0  0  0  0  0  0  0
   -0.0730    0.7871    1.6759 O   0  0  0  0  0  0  0  0  0  0  0  0
    1.1411   -1.2970   -0.0330 C   0  0  0  0  0  0  0  0  0  0  0  0
    1.3637    0.6656    1.5208 C   0  0  0  0  0  0  0  0  0  0  0  0
    1.7980   -0.7926    1.2701 C   0  0  0  0  0  0  0  0  0  0  0  0
    3.3391   -0.8758    1.1384 C   0  0  0  0  0  0  0  0  0  0  0  0
    1.4224   -1.7126    2.4591 C   0  0  0  0  0  0  0  0  0  0  0  0
    2.6577   -2.5654    2.7946 C   0  0  0  0  0  0  0  0  0  0  0  0
    3.7458   -2.2199    1.7627 C   0  0  0  0  0  0  0  0  0  0  0  0
    1.3144   -2.3832   -0.1816 H   0  0  0  0  0  0  0  0  0  0  0  0
    1.7212    1.3603    0.7381 H   0  0  0  0  0  0  0  0  0  0  0  0
    3.8229   -0.0444    1.6831 H   0  0  0  0  0  0  0  0  0  0  0  0
    1.1016   -1.1177    3.3327 H   0  0  0  0  0  0  0  0  0  0  0  0
    2.4176   -3.6418    2.7732 H   0  0  0  0  0  0  0  0  0  0  0  0
    3.8106   -3.0051    0.9887 H   0  0  0  0  0  0  0  0  0  0  0  0
    1.4902   -0.7549   -0.9317 H   0  0  0  0  0  0  0  0  0  0  0  0
    1.7104    1.0361    2.5088 H   0  0  0  0  0  0  0  0  0  0  0  0
    3.6784   -0.7907    0.0937 H   0  0  0  0  0  0  0  0  0  0  0  0
    0.5513   -2.3453    2.2063 H   0  0  0  0  0  0  0  0  0  0  0  0
    3.0093   -2.3510    3.8191 H   0  0  0  0  0  0  0  0  0  0  0  0
    4.7433   -2.1629    2.2286 H   0  0  0  0  0  0  0  0  0  0  0  0
   -0.5819    3.0864    0.2477 H   0  0  0  0  0  0  0  0  0  0  0  0
   -0.3697    2.7008   -0.7636 C   0  0  0  0  0  0  0  0  0  0  0  0
   -0.4891    1.3676   -1.0759 C   0  0  0  0  0  0  0  0  0  0  0  0
    0.2504    3.2097   -3.0481 C   0  0  0  0  0  0  0  0  0  0  0  0
   -0.3081    0.8879   -2.4098 C   0  0  0  0  0  0  0  0  0  0  0  0
    0.0131    3.6371   -1.7666 C   0  0  0  0  0  0  0  0  0  0  0  0
    0.0921    1.8315   -3.3996 C   0  0  0  0  0  0  0  0  0  0  0  0
   -0.5181   -0.4695   -2.8196 C   0  0  0  0  0  0  0  0  0  0  0  0
    0.1030    4.6884   -1.4969 H   0  0  0  0  0  0  0  0  0  0  0  0
    0.6300    2.1356   -5.4844 H   0  0  0  0  0  0  0  0  0  0  0  0
    0.5515    3.9146   -3.8244 H   0  0  0  0  0  0  0  0  0  0  0  0
   -0.3094   -0.8533   -4.1206 C   0  0  0  0  0  0  0  0  0  0  0  0
   -0.8704   -1.2125   -2.0966 H   0  0  0  0  0  0  0  0  0  0  0  0
   -0.4807   -1.8856   -4.4277 H   0  0  0  0  0  0  0  0  0  0  0  0
    0.1228    0.0881   -5.0983 C   0  0  0  0  0  0  0  0  0  0  0  0
    0.2853   -0.2502   -6.1203 H   0  0  0  0  0  0  0  0  0  0  0  0
    0.3138    1.3993   -4.7459 C   0  0  0  0  0  0  0  0  0  0  0  0
   -3.8754   -1.6051    0.3592 O   0  0  0  0  0  0  0  0  0  0  0  0
   -3.0294   -2.6250    0.8463 C   0  0  0  0  0  0  0  0  0  0  0  0
   -3.6155   -3.5515    0.7661 H   0  0  0  0  0  0  0  0  0  0  0  0
   -2.7639   -2.4326    1.8930 H   0  0  0  0  0  0  0  0  0  0  0  0
   -2.1294   -2.6942    0.2176 H   0  0  0  0  0  0  0  0  0  0  0  0
  2  3  3  0  0  0  0
  1  2  1  0  0  0  0
  5  6  1  0  0  0  0
  5  7  1  0  0  0  0
  5  8  1  0  0  0  0
  4  5  1  0  0  0  0
  1  4  1  0  0  0  0
 10  9  1  0  0  0  0
 11  9  1  0  0  0  0
 12 10  1  0  0  0  0
 13 11  1  0  0  0  0
 13 14  1  0  0  0  0
 14 12  1  0  0  0  0
 15 14  1  0  0  0  0
 16 14  1  0  0  0  0
 17 16  1  0  0  0  0
 17 18  1  0  0  0  0
 18 15  1  0  0  0  0
 19 12  1  0  0  0  0
 20 13  1  0  0  0  0
 21 15  1  0  0  0  0
 22 16  1  0  0  0  0
 23 17  1  0  0  0  0
 24 18  1  0  0  0  0
 25 12  1  0  0  0  0
 26 13  1  0  0  0  0
 27 15  1  0  0  0  0
 28 16  1  0  0  0  0
 29 17  1  0  0  0  0
 30 18  1  0  0  0  0
  1  9  1  0  0  0  0
 31 32  1  0  0  0  0
 32 33  1  0  0  0  0
 32 36  2  0  0  0  0
 33 35  2  0  0  0  0
 35 37  1  0  0  0  0
 34 36  1  0  0  0  0
 34 37  2  0  0  0  0
 38 35  1  0  0  0  0
 37 47  1  0  0  0  0
 38 42  2  0  0  0  0
 42 45  1  0  0  0  0
 45 47  2  0  0  0  0
 34 41  1  0  0  0  0
 36 39  1  0  0  0  0
 38 43  1  0  0  0  0
 40 47  1  0  0  0  0
 45 46  1  0  0  0  0
 42 44  1  0  0  0  0
  9 33  1  0  0  0  0
 49 50  1  0  0  0  0
 49 51  1  0  0  0  0
 49 52  1  0  0  0  0
 48 49  1  0  0  0  0
  1 48  1  0  0  0  0
M  END
> <PM6_ENERGY>
-668.181

> <UID>
IBRYBACRAOFVPY-CSZVELBINA-N

> <FITNESS>
1.14326

> <GCODE>
4313

> <GraphENC>
4313 72_1_0,80_65_1,120_60_1,86_65_1,83627_39_1, 72_0_80_0_SINGLE_Xlig:0_Xlig:1,72_2_120_1_SINGLE_scaff:0_MPhosphonite:1,72_1_86_0_SINGLE_Xlig:0_Xlig:1,120_0_83627_0_SINGLE_LPhosphoniteSubR:0_SubArM:1, 

> <GraphJson>
{
  "graphId": 4313,
  "gVertices": [
    {
      "lstAPs": [
        {
          "id": 110349,
          "atomPositionNumber": 0,
          "atomPositionNumberInMol": 0,
          "apClass": {
            "rule": "Xlig",
            "subClass": 0,
            "bndTyp": "SINGLE"
          },
          "dirVec": {
            "x": -2.3339,
            "y": -0.0087,
            "z": 0.8172
          }
        },
        {
          "id": 110350,
          "atomPositionNumber": 0,
          "atomPositionNumberInMol": 0,
          "apClass": {
            "rule": "Xlig",
            "subClass": 0,
            "bndTyp": "SINGLE"
          },
          "dirVec": {
            "x": 2.336,
            "y": -5.0E-4,
            "z": 0.829
          }
        },
        {
          "id": 110351,
          "atomPositionNumber": 0,
          "atomPositionNumberInMol": 0,
          "apClass": {
            "rule": "scaff",
            "subClass": 0,
            "bndTyp": "SINGLE"
          },
          "dirVec": {
            "x": -0.0095,
            "y": 0.0046,
            "z": -1.7113
          }
        }
      ],
      "lstSymAPs": [
        {
          "symIds": [
            0,
            1
          ]
        }
      ],
      "mol": {
        "atoms": [
          {
            "elSymbol": "Pt",
            "p3d": {
              "x": -0.0098,
              "y": 0.0049,
              "z": 0.6289
            }
          },
          {
            "elSymbol": "C",
            "p3d": {
              "x": -6.0E-4,
              "y": 0.0016,
              "z": 2.5609
            }
          },
          {
            "elSymbol": "O",
            "p3d": {
              "x": 0.0025,
              "y": -0.0041,
              "z": 3.6974
            }
          },
          {
            "elSymbol": "Du",
            "p3d": {
              "x": -0.007,
              "y": 1.0013,
              "z": 0.6372
            }
          },
          {
            "elSymbol": "Du",
            "p3d": {
              "x": -0.0014,
              "y": 0.9902,
              "z": 2.5698
            }
          }
        ],
        "bonds": [
          {
            "atomIds": [
              1,
              2
            ],
            "bo": "TRIPLE"
          },
          {
            "atomIds": [
              0,
              1
            ],
            "bo": "SINGLE"
          },
          {
            "atomIds": [
              3,
              0
            ],
            "bo": "SINGLE"
          },
          {
            "atomIds": [
              4,
              1
            ],
            "bo": "SINGLE"
          }
        ]
      },
      "vertexId": 72,
      "buildingBlockId": 0,
      "buildingBlockType": "SCAFFOLD",
      "isRCV": false,
      "properties": {
        "ATTACHMENT_POINTS": "1#Xlig:0:SINGLE:-2.3339%-0.0087%0.8172,Xlig:0:SINGLE:2.3360%-0.0005%0.8290,scaff:0:SINGLE:-0.0095%0.0046%-1.7113 "
      },
      "uniquefyingPropertyKeys": [],
      "allowedMutationTypes": [
        "DELETE",
        "EXTEND",
        "CHANGEBRANCH",
        "CHANGELINK",
        "ADDLINK",
        "DELETELINK",
        "DELETECHAIN"
      ],
      "vertexType": "MolecularFragment"
    },
    {
      "lstAPs": [
        {
          "id": 110352,
          "atomPositionNumber": 0,
          "atomPositionNumberInMol": 5,
          "apClass": {
            "rule": "Xlig",
            "subClass": 1,
            "bndTyp": "SINGLE"
          },
          "dirVec": {
            "x": -0.1753,
            "y": 0.0948,
            "z": -0.4464
          }
        }
      ],
      "lstSymAPs": [],
      "mol": {
        "atoms": [
          {
            "elSymbol": "O",
            "p3d": {
              "x": -0.3534,
              "y": 2.1044,
              "z": -0.7339
            }
          },
          {
            "elSymbol": "C",
            "p3d": {
              "x": -0.5345,
              "y": 2.7646,
              "z": 0.4801
            }
          },
          {
            "elSymbol": "H",
            "p3d": {
              "x": -0.3728,
              "y": 3.8337,
              "z": 0.2724
            }
          },
          {
            "elSymbol": "H",
            "p3d": {
              "x": 0.1816,
              "y": 2.4161,
              "z": 1.2384
            }
          },
          {
            "elSymbol": "H",
            "p3d": {
              "x": -1.553,
              "y": 2.6149,
              "z": 0.8489
            }
          }
        ],
        "bonds": [
          {
            "atomIds": [
              1,
              2
            ],
            "bo": "SINGLE"
          },
          {
            "atomIds": [
              1,
              3
            ],
            "bo": "SINGLE"
          },
          {
            "atomIds": [
              1,
              4
            ],
            "bo": "SINGLE"
          },
          {
            "atomIds": [
              0,
              1
            ],
            "bo": "SINGLE"
          }
        ]
      },
      "vertexId": 80,
      "buildingBlockId": 64,
      "buildingBlockType": "FRAGMENT",
      "isRCV": false,
      "properties": {
        "ATTACHMENT_POINTS": "1#Xlig:1:SINGLE:-0.1753%0.0948%-0.4464 "
      },
      "uniquefyingPropertyKeys": [],
      "allowedMutationTypes": [
        "DELETE",
        "EXTEND",
        "CHANGEBRANCH",
        "CHANGELINK",
        "ADDLINK",
        "DELETELINK",
        "DELETECHAIN"
      ],
      "vertexType": "MolecularFragment"
    },
    {
      "lstAPs": [
        {
          "id": 110353,
          "atomPositionNumber": 0,
          "atomPositionNumberInMol": 10,
          "apClass": {
            "rule": "LPhosphoniteSubR",
            "subClass": 0,
            "bndTyp": "SINGLE"
          },
          "dirVec": {
            "x": 8.5833,
            "y": -0.8556,
            "z": 13.5393
          }
        },
        {
          "id": 110354,
          "atomPositionNumber": 0,
          "atomPositionNumberInMol": 10,
          "apClass": {
            "rule": "MPhosphonite",
            "subClass": 1,
            "bndTyp": "SINGLE"
          },
          "dirVec": {
            "x": 10.4864,
            "y": 1.7322,
            "z": 12.8008
          }
        }
      ],
      "lstSymAPs": [],
      "mol": {
        "atoms": [
          {
            "elSymbol": "P",
            "p3d": {
              "x": 9.4136,
              "y": 0.5115,
              "z": 14.3923
            }
          },
          {
            "elSymbol": "O",
            "p3d": {
              "x": 8.2442,
              "y": 1.2619,
              "z": 15.1868
            }
          },
          {
            "elSymbol": "O",
            "p3d": {
              "x": 10.2958,
              "y": -0.1433,
              "z": 15.5334
            }
          },
          {
            "elSymbol": "C",
            "p3d": {
              "x": 7.569,
              "y": 0.5127,
              "z": 16.2393
            }
          },
          {
            "elSymbol": "C",
            "p3d": {
              "x": 9.6126,
              "y": -0.8784,
              "z": 16.5841
            }
          },
          {
            "elSymbol": "C",
            "p3d": {
              "x": 8.5724,
              "y": -0.0317,
              "z": 17.272
            }
          },
          {
            "elSymbol": "C",
            "p3d": {
              "x": 7.8304,
              "y": -0.8777,
              "z": 18.3165
            }
          },
          {
            "elSymbol": "C",
            "p3d": {
              "x": 9.196,
              "y": 1.1315,
              "z": 18.0904
            }
          },
          {
            "elSymbol": "C",
            "p3d": {
              "x": 8.5732,
              "y": 1.0297,
              "z": 19.3942
            }
          },
          {
            "elSymbol": "C",
            "p3d": {
              "x": 7.5194,
              "y": 0.0547,
              "z": 19.4381
            }
          },
          {
            "elSymbol": "H",
            "p3d": {
              "x": 6.9817,
              "y": 1.2703,
              "z": 16.7546
            }
          },
          {
            "elSymbol": "H",
            "p3d": {
              "x": 9.0105,
              "y": -1.7019,
              "z": 16.1896
            }
          },
          {
            "elSymbol": "H",
            "p3d": {
              "x": 8.4263,
              "y": -1.7167,
              "z": 18.6441
            }
          },
          {
            "elSymbol": "H",
            "p3d": {
              "x": 10.2549,
              "y": 0.9263,
              "z": 17.976
            }
          },
          {
            "elSymbol": "H",
            "p3d": {
              "x": 8.3046,
              "y": 1.9671,
              "z": 19.8829
            }
          },
          {
            "elSymbol": "H",
            "p3d": {
              "x": 6.5618,
              "y": 0.5532,
              "z": 19.2885
            }
          },
          {
            "elSymbol": "H",
            "p3d": {
              "x": 7.1262,
              "y": -0.3475,
              "z": 15.7389
            }
          },
          {
            "elSymbol": "H",
            "p3d": {
              "x": 10.5271,
              "y": -1.1697,
              "z": 17.0978
            }
          },
          {
            "elSymbol": "H",
            "p3d": {
              "x": 6.9137,
              "y": -1.2746,
              "z": 17.8773
            }
          },
          {
            "elSymbol": "H",
            "p3d": {
              "x": 9.6349,
              "y": 2.045,
              "z": 17.6739
            }
          },
          {
            "elSymbol": "H",
            "p3d": {
              "x": 9.3306,
              "y": 0.6014,
              "z": 20.0507
            }
          },
          {
            "elSymbol": "H",
            "p3d": {
              "x": 7.4379,
              "y": -0.5103,
              "z": 20.3832
            }
          }
        ],
        "bonds": [
          {
            "atomIds": [
              1,
              0
            ],
            "bo": "SINGLE"
          },
          {
            "atomIds": [
              2,
              0
            ],
            "bo": "SINGLE"
          },
          {
            "atomIds": [
              3,
              1
            ],
            "bo": "SINGLE"
          },
          {
            "atomIds": [
              4,
              2
            ],
            "bo": "SINGLE"
          },
          {
            "atomIds": [
              4,
              5
            ],
            "bo": "SINGLE"
          },
          {
            "atomIds": [
              5,
              3
            ],
            "bo": "SINGLE"
          },
          {
            "atomIds": [
              6,
              5
            ],
            "bo": "SINGLE"
          },
          {
            "atomIds": [
              7,
              5
            ],
            "bo": "SINGLE"
          },
          {
            "atomIds": [
              8,
              7
            ],
            "bo": "SINGLE"
          },
          {
            "atomIds": [
              8,
              9
            ],
            "bo": "SINGLE"
          },
          {
            "atomIds": [
              9,
              6
            ],
            "bo": "SINGLE"
          },
          {
            "atomIds": [
              10,
              3
            ],
            "bo": "SINGLE"
          },
          {
            "atomIds": [
              11,
              4
            ],
            "bo": "SINGLE"
          },
          {
            "atomIds": [
              12,
              6
            ],
            "bo": "SINGLE"
          },
          {
            "atomIds": [
              13,
              7
            ],
            "bo": "SINGLE"
          },
          {
            "atomIds": [
              14,
              8
            ],
            "bo": "SINGLE"
          },
          {
            "atomIds": [
              15,
              9
            ],
            "bo": "SINGLE"
          },
          {
            "atomIds": [
              16,
              3
            ],
            "bo": "SINGLE"
          },
          {
            "atomIds": [
              17,
              4
            ],
            "bo": "SINGLE"
          },
          {
            "atomIds": [
              18,
              6
            ],
            "bo": "SINGLE"
          },
          {
            "atomIds": [
              19,
              7
            ],
            "bo": "SINGLE"
          },
          {
            "atomIds": [
              20,
              8
            ],
            "bo": "SINGLE"
          },
          {
            "atomIds": [
              21,
              9
            ],
            "bo": "SINGLE"
          }
        ]
      },
      "vertexId": 120,
      "buildingBlockId": 59,
      "buildingBlockType": "FRAGMENT",
      "isRCV": false,
      "properties": {
        "ATTACHMENT_POINTS": "1#LPhosphoniteSubR:0:SINGLE:8.5833%-0.8556%13.5393,MPhosphonite:1:SINGLE:10.4864%1.7322%12.8008 "
      },
      "uniquefyingPropertyKeys": [],
      "allowedMutationTypes": [
        "DELETE",
        "EXTEND",
        "CHANGEBRANCH",
        "CHANGELINK",
        "ADDLINK",
        "DELETELINK",
        "DELETECHAIN"
      ],
      "vertexType": "MolecularFragment"
    },
    {
      "lstAPs": [
        {
          "id": 110355,
          "atomPositionNumber": 0,
          "atomPositionNumberInMol": 49,
          "apClass": {
            "rule": "Xlig",
            "subClass": 1,
            "bndTyp": "SINGLE"
          },
          "dirVec": {
            "x": -0.1753,
            "y": 0.0948,
            "z": -0.4464
          }
        }
      ],
      "lstSymAPs": [],
      "mol": {
        "atoms": [
          {
            "elSymbol": "O",
            "p3d": {
              "x": -0.3534,
              "y": 2.1044,
              "z": -0.7339
            }
          },
          {
            "elSymbol": "C",
            "p3d": {
              "x": -0.5345,
              "y": 2.7646,
              "z": 0.4801
            }
          },
          {
            "elSymbol": "H",
            "p3d": {
              "x": -0.3728,
              "y": 3.8337,
              "z": 0.2724
            }
          },
          {
            "elSymbol": "H",
            "p3d": {
              "x": 0.1816,
              "y": 2.4161,
              "z": 1.2384
            }
          },
          {
            "elSymbol": "H",
            "p3d": {
              "x": -1.553,
              "y": 2.6149,
              "z": 0.8489
            }
          }
        ],
        "bonds": [
          {
            "atomIds": [
              1,
              2
            ],
            "bo": "SINGLE"
          },
          {
            "atomIds": [
              1,
              3
            ],
            "bo": "SINGLE"
          },
          {
            "atomIds": [
              1,
              4
            ],
            "bo": "SINGLE"
          },
          {
            "atomIds": [
              0,
              1
            ],
            "bo": "SINGLE"
          }
        ]
      },
      "vertexId": 86,
      "buildingBlockId": 64,
      "buildingBlockType": "FRAGMENT",
      "isRCV": false,
      "properties": {
        "ATTACHMENT_POINTS": "1#Xlig:1:SINGLE:-0.1753%0.0948%-0.4464 "
      },
      "uniquefyingPropertyKeys": [],
      "allowedMutationTypes": [
        "DELETE",
        "EXTEND",
        "CHANGEBRANCH",
        "CHANGELINK",
        "ADDLINK",
        "DELETELINK",
        "DELETECHAIN"
      ],
      "vertexType": "MolecularFragment"
    },
    {
      "lstAPs": [
        {
          "id": 110372,
          "atomPositionNumber": 2,
          "atomPositionNumberInMol": 34,
          "apClass": {
            "rule": "SubArM",
            "subClass": 1,
            "bndTyp": "SINGLE"
          },
          "dirVec": {
            "x": 0.2839,
            "y": 0.3907,
            "z": -0.6271
          }
        }
      ],
      "lstSymAPs": [],
      "mol": {
        "atoms": [
          {
            "elSymbol": "H",
            "p3d": {
              "x": 1.8079,
              "y": 2.6521,
              "z": -0.6457
            }
          },
          {
            "elSymbol": "C",
            "p3d": {
              "x": 2.3292,
              "y": 1.8028,
              "z": -1.1346
            }
          },
          {
            "elSymbol": "C",
            "p3d": {
              "x": 1.6928,
              "y": 0.5701,
              "z": -1.2214
            }
          },
          {
            "elSymbol": "C",
            "p3d": {
              "x": 4.26,
              "y": 0.9161,
              "z": -2.2564
            }
          },
          {
            "elSymbol": "C",
            "p3d": {
              "x": 2.3547,
              "y": -0.5116,
              "z": -1.8205
            }
          },
          {
            "elSymbol": "C",
            "p3d": {
              "x": 3.6118,
              "y": 1.9867,
              "z": -1.654
            }
          },
          {
            "elSymbol": "C",
            "p3d": {
              "x": 3.6519,
              "y": -0.333,
              "z": -2.339
            }
          },
          {
            "elSymbol": "C",
            "p3d": {
              "x": 1.7318,
              "y": -1.7781,
              "z": -1.8989
            }
          },
          {
            "elSymbol": "H",
            "p3d": {
              "x": 4.0936,
              "y": 2.9609,
              "z": -1.5808
            }
          },
          {
            "elSymbol": "H",
            "p3d": {
              "x": 5.3077,
              "y": -1.3005,
              "z": -3.3639
            }
          },
          {
            "elSymbol": "H",
            "p3d": {
              "x": 5.2705,
              "y": 1.0583,
              "z": -2.6578
            }
          },
          {
            "elSymbol": "C",
            "p3d": {
              "x": 2.3998,
              "y": -2.8526,
              "z": -2.5007
            }
          },
          {
            "elSymbol": "H",
            "p3d": {
              "x": 0.724,
              "y": -1.9306,
              "z": -1.4908
            }
          },
          {
            "elSymbol": "H",
            "p3d": {
              "x": 1.9155,
              "y": -3.8304,
              "z": -2.576
            }
          },
          {
            "elSymbol": "C",
            "p3d": {
              "x": 3.684,
              "y": -2.6697,
              "z": -3.0355
            }
          },
          {
            "elSymbol": "H",
            "p3d": {
              "x": 4.2028,
              "y": -3.5195,
              "z": -3.4955
            }
          },
          {
            "elSymbol": "C",
            "p3d": {
              "x": 4.3092,
              "y": -1.4197,
              "z": -2.9387
            }
          }
        ],
        "bonds": [
          {
            "atomIds": [
              0,
              1
            ],
            "bo": "SINGLE"
          },
          {
            "atomIds": [
              1,
              2
            ],
            "bo": "SINGLE"
          },
          {
            "atomIds": [
              1,
              5
            ],
            "bo": "DOUBLE"
          },
          {
            "atomIds": [
              2,
              4
            ],
            "bo": "DOUBLE"
          },
          {
            "atomIds": [
              4,
              6
            ],
            "bo": "SINGLE"
          },
          {
            "atomIds": [
              3,
              5
            ],
            "bo": "SINGLE"
          },
          {
            "atomIds": [
              3,
              6
            ],
            "bo": "DOUBLE"
          },
          {
            "atomIds": [
              7,
              4
            ],
            "bo": "SINGLE"
          },
          {
            "atomIds": [
              6,
              16
            ],
            "bo": "SINGLE"
          },
          {
            "atomIds": [
              7,
              11
            ],
            "bo": "DOUBLE"
          },
          {
            "atomIds": [
              11,
              14
            ],
            "bo": "SINGLE"
          },
          {
            "atomIds": [
              14,
              16
            ],
            "bo": "DOUBLE"
          },
          {
            "atomIds": [
              3,
              10
            ],
            "bo": "SINGLE"
          },
          {
            "atomIds": [
              5,
              8
            ],
            "bo": "SINGLE"
          },
          {
            "atomIds": [
              7,
              12
            ],
            "bo": "SINGLE"
          },
          {
            "atomIds": [
              9,
              16
            ],
            "bo": "SINGLE"
          },
          {
            "atomIds": [
              14,
              15
            ],
            "bo": "SINGLE"
          },
          {
            "atomIds": [
              11,
              13
            ],
            "bo": "SINGLE"
          }
        ]
      },
      "vertexId": 83627,
      "buildingBlockId": 38,
      "buildingBlockType": "FRAGMENT",
      "isRCV": false,
      "properties": {
        "ATTACHMENT_POINTS": "3#SubArM:1:SINGLE:0.2839%0.3907%-0.6271 "
      },
      "uniquefyingPropertyKeys": [],
      "allowedMutationTypes": [
        "DELETE",
        "EXTEND",
        "CHANGEBRANCH",
        "CHANGELINK",
        "ADDLINK",
        "DELETELINK",
        "DELETECHAIN"
      ],
      "vertexType": "MolecularFragment"
    }
  ],
  "gEdges": [
    {
      "srcAPID": 110349,
      "trgAPID": 110352,
      "bondType": "SINGLE"
    },
    {
      "srcAPID": 110351,
      "trgAPID": 110354,
      "bondType": "SINGLE"
    },
    {
      "srcAPID": 110350,
      "trgAPID": 110355,
      "bondType": "SINGLE"
    },
    {
      "srcAPID": 110353,
      "trgAPID": 110372,
      "bondType": "SINGLE"
    }
  ],
  "gRings": [],
  "symVertices": []
}

> <SMILES>
[Pt](C#O)(OC([H])([H])[H])([P]1(OC(C2(C(O1)([H])[H])C(C(C(C2([H])[H])([H])[H])([H])[H])([H])[H])([H])[H])C=3C([H])=C(C(=C4C3C(=C(C(=C4[H])[H])[H])[H])[H])[H])OC([H])([H])[H]

$$$$
