M00015032
  CDK     04222214023D

 48 49  0  0  0  0  0  0  0  0999 V2000
    0.0152    2.5882   -0.7903 Pt  0  0  0  0  0  0  0  0  0  0  0  0
   -0.0769    4.5174   -0.9209 C   0  0  0  0  0  0  0  0  0  0  0  0
   -0.1317    5.6571   -0.9952 O   0  0  0  0  0  0  0  0  0  0  0  0
    2.3193    2.7338   -0.5899 Cl  0  0  0  0  0  0  0  0  0  0  0  0
    0.0620   -0.2090    0.3343 N   0  0  0  0  0  0  0  0  0  0  0  0
    0.1126    0.5983   -0.7056 C   0  0  2  0  0  0  0  0  0  0  0  0
    0.2801   -0.1648   -2.0198 C   0  0  1  0  0  0  0  0  0  0  0  0
    0.2605   -1.6590   -1.5827 C   0  0  0  0  0  0  0  0  0  0  0  0
    0.1767   -1.7025   -0.0308 C   0  0  0  0  0  0  0  0  0  0  0  0
   -0.5943   -2.1873   -2.0410 H   0  0  0  0  0  0  0  0  0  0  0  0
    1.1557   -2.1886   -1.9500 H   0  0  0  0  0  0  0  0  0  0  0  0
   -0.0853    0.2205    1.7143 C   0  0  0  0  0  0  0  0  0  0  0  0
   -0.3616    0.8434    4.4237 C   0  0  0  0  0  0  0  0  0  0  0  0
   -1.3804    0.3509    2.2703 C   0  0  0  0  0  0  0  0  0  0  0  0
    1.0684    0.4961    2.4866 C   0  0  0  0  0  0  0  0  0  0  0  0
    0.9088    0.7863    3.8510 C   0  0  0  0  0  0  0  0  0  0  0  0
   -1.4968    0.6438    3.6385 C   0  0  0  0  0  0  0  0  0  0  0  0
    1.7881    0.9855    4.4626 H   0  0  0  0  0  0  0  0  0  0  0  0
   -2.4866    0.7324    4.0849 H   0  0  0  0  0  0  0  0  0  0  0  0
   -0.4685    1.0629    5.4869 H   0  0  0  0  0  0  0  0  0  0  0  0
   -2.6288    0.2393    1.4643 C   0  0  0  0  0  0  0  0  0  0  0  0
   -2.4719   -0.0463    0.4151 H   0  0  0  0  0  0  0  0  0  0  0  0
   -3.1350    1.2237    1.4139 H   0  0  0  0  0  0  0  0  0  0  0  0
   -3.3448   -0.4685    1.9011 H   0  0  0  0  0  0  0  0  0  0  0  0
    2.4427    0.5407    1.9123 C   0  0  0  0  0  0  0  0  0  0  0  0
    2.5060    0.2530    0.8538 H   0  0  0  0  0  0  0  0  0  0  0  0
    3.1490   -0.0852    2.4724 H   0  0  0  0  0  0  0  0  0  0  0  0
    2.8318    1.5775    1.9434 H   0  0  0  0  0  0  0  0  0  0  0  0
   -0.9015    0.2080   -2.9418 C   0  0  0  0  0  0  0  0  0  0  0  0
   -1.8621    0.0223   -2.4167 H   0  0  0  0  0  0  0  0  0  0  0  0
   -0.8821    1.3087   -3.1230 H   0  0  0  0  0  0  0  0  0  0  0  0
   -0.8903   -0.5302   -4.2751 C   0  0  0  0  0  0  0  0  0  0  0  0
   -0.9133   -1.6176   -4.1479 H   0  0  0  0  0  0  0  0  0  0  0  0
   -0.0005   -0.2850   -4.8677 H   0  0  0  0  0  0  0  0  0  0  0  0
   -1.7648   -0.2523   -4.8777 H   0  0  0  0  0  0  0  0  0  0  0  0
   -1.0623   -2.4481    0.4580 C   0  0  0  0  0  0  0  0  0  0  0  0
   -1.9876   -2.0559    0.0150 H   0  0  0  0  0  0  0  0  0  0  0  0
   -1.1767   -2.3851    1.5495 H   0  0  0  0  0  0  0  0  0  0  0  0
   -1.0060   -3.5136    0.2025 H   0  0  0  0  0  0  0  0  0  0  0  0
    1.4422   -2.2822    0.5972 C   0  0  0  0  0  0  0  0  0  0  0  0
    1.4268   -2.2108    1.6939 H   0  0  0  0  0  0  0  0  0  0  0  0
    2.3502   -1.7689    0.2531 H   0  0  0  0  0  0  0  0  0  0  0  0
    1.5549   -3.3444    0.3469 H   0  0  0  0  0  0  0  0  0  0  0  0
    1.6228    0.2444   -2.6278 C   0  0  0  0  0  0  0  0  0  0  0  0
    1.8479   -0.3312   -3.5321 H   0  0  0  0  0  0  0  0  0  0  0  0
    2.4573    0.1118   -1.9274 H   0  0  0  0  0  0  0  0  0  0  0  0
    1.6230    1.3104   -2.9117 H   0  0  0  0  0  0  0  0  0  0  0  0
   -2.2924    2.4804   -0.9704 Cl  0  0  0  0  0  0  0  0  0  0  0  0
  2  3  3  0  0  0  0
  1  2  1  0  0  0  0
  1  4  1  0  0  0  0
  5  6  1  0  0  0  0
  7  6  1  0  0  0  0
  8  7  1  0  0  0  0
  9  5  1  0  0  0  0
 10  8  1  0  0  0  0
 11  8  1  0  0  0  0
  8  9  1  0  0  0  0
  1  6  1  0  0  0  0
 12 15  1  0  0  0  0
 15 16  2  0  0  0  0
 13 16  1  0  0  0  0
 13 17  2  0  0  0  0
 14 17  1  0  0  0  0
 12 14  2  0  0  0  0
 16 18  1  0  0  0  0
 17 19  1  0  0  0  0
 13 20  1  0  0  0  0
 21 22  1  0  0  0  0
 21 23  1  0  0  0  0
 21 24  1  0  0  0  0
 14 21  1  0  0  0  0
 25 26  1  0  0  0  0
 25 27  1  0  0  0  0
 25 28  1  0  0  0  0
 15 25  1  0  0  0  0
  5 12  1  0  0  0  0
 30 29  1  0  0  0  0
 31 29  1  0  0  0  0
 32 29  1  0  0  0  0
 33 32  1  0  0  0  0
 34 32  1  0  0  0  0
 35 32  1  0  0  0  0
  7 29  1  0  0  0  0
 37 36  1  0  0  0  0
 38 36  1  0  0  0  0
 39 36  1  0  0  0  0
  9 36  1  0  0  0  0
 41 40  1  0  0  0  0
 42 40  1  0  0  0  0
 43 40  1  0  0  0  0
  9 40  1  0  0  0  0
 45 44  1  0  0  0  0
 46 44  1  0  0  0  0
 47 44  1  0  0  0  0
  7 44  1  0  0  0  0
  1 48  1  0  0  0  0
M  END
> <PM6_ENERGY>
-290.906

> <UID>
OEPGYOLYUSCNAL-LJSICVHNNA-L

> <FITNESS>
1.14343

> <GCODE>
16267

> <GraphENC>
16267 72_1_0,82_67_1,92_14_1,88_67_1,331637_38_1,331642_24_1,331654_28_1,334477_28_1,331651_2_2, 72_0_82_0_SINGLE_Xlig:0_Xlig:1,72_2_92_1_SINGLE_scaff:0_MPyrrolidinylidene:1,72_1_88_0_SINGLE_Xlig:0_Xlig:1,92_0_331637_0_SINGLE_LPyrrolidinylideneSubNS:0_SubArL:1,92_2_331642_0_SINGLE_LPyrrolidinylideneSubCGammaL:0_LPyrrolidinylideneSubCGammaS:1,92_4_331654_0_SINGLE_LPyrrolidinylideneSubCAlpha:0_LPyrrolidinylideneSubCAlpha:1,92_5_334477_0_SINGLE_LPyrrolidinylideneSubCAlpha:0_LPyrrolidinylideneSubCAlpha:1,92_3_331651_0_SINGLE_LPyrrolidinylideneSubCGammaS:0_me:1, SymmetricSet [symIds=[331654, 334477]] 

> <GraphJson>
{
  "graphId": 16267,
  "gVertices": [
    {
      "lstAPs": [
        {
          "id": 435817,
          "atomPositionNumber": 0,
          "atomPositionNumberInMol": 0,
          "apClass": {
            "rule": "Xlig",
            "subClass": 0,
            "bndTyp": "SINGLE"
          },
          "dirVec": {
            "x": -2.3339,
            "y": -0.0087,
            "z": 0.8172
          }
        },
        {
          "id": 435818,
          "atomPositionNumber": 0,
          "atomPositionNumberInMol": 0,
          "apClass": {
            "rule": "Xlig",
            "subClass": 0,
            "bndTyp": "SINGLE"
          },
          "dirVec": {
            "x": 2.336,
            "y": -5.0E-4,
            "z": 0.829
          }
        },
        {
          "id": 435819,
          "atomPositionNumber": 0,
          "atomPositionNumberInMol": 0,
          "apClass": {
            "rule": "scaff",
            "subClass": 0,
            "bndTyp": "SINGLE"
          },
          "dirVec": {
            "x": -0.0095,
            "y": 0.0046,
            "z": -1.7113
          }
        }
      ],
      "lstSymAPs": [
        {
          "symIds": [
            0,
            1
          ]
        }
      ],
      "mol": {
        "atoms": [
          {
            "elSymbol": "Pt",
            "p3d": {
              "x": -0.0098,
              "y": 0.0049,
              "z": 0.6289
            }
          },
          {
            "elSymbol": "C",
            "p3d": {
              "x": -6.0E-4,
              "y": 0.0016,
              "z": 2.5609
            }
          },
          {
            "elSymbol": "O",
            "p3d": {
              "x": 0.0025,
              "y": -0.0041,
              "z": 3.6974
            }
          },
          {
            "elSymbol": "Du",
            "p3d": {
              "x": -0.007,
              "y": 1.0013,
              "z": 0.6372
            }
          },
          {
            "elSymbol": "Du",
            "p3d": {
              "x": -0.0014,
              "y": 0.9902,
              "z": 2.5698
            }
          }
        ],
        "bonds": [
          {
            "atomIds": [
              1,
              2
            ],
            "bo": "TRIPLE"
          },
          {
            "atomIds": [
              0,
              1
            ],
            "bo": "SINGLE"
          },
          {
            "atomIds": [
              3,
              0
            ],
            "bo": "SINGLE"
          },
          {
            "atomIds": [
              4,
              1
            ],
            "bo": "SINGLE"
          }
        ]
      },
      "vertexId": 72,
      "buildingBlockId": 0,
      "buildingBlockType": "SCAFFOLD",
      "isRCV": false,
      "properties": {
        "ATTACHMENT_POINTS": "1#Xlig:0:SINGLE:-2.3339%-0.0087%0.8172,Xlig:0:SINGLE:2.3360%-0.0005%0.8290,scaff:0:SINGLE:-0.0095%0.0046%-1.7113 "
      },
      "uniquefyingPropertyKeys": [],
      "allowedMutationTypes": [
        "DELETE",
        "EXTEND",
        "CHANGEBRANCH",
        "CHANGELINK",
        "ADDLINK",
        "DELETELINK",
        "DELETECHAIN"
      ],
      "vertexType": "MolecularFragment"
    },
    {
      "lstAPs": [
        {
          "id": 435820,
          "atomPositionNumber": 0,
          "atomPositionNumberInMol": 5,
          "apClass": {
            "rule": "Xlig",
            "subClass": 1,
            "bndTyp": "SINGLE"
          },
          "dirVec": {
            "x": -0.0053,
            "y": -0.0027,
            "z": 0.63
          }
        }
      ],
      "lstSymAPs": [],
      "mol": {
        "atoms": [
          {
            "elSymbol": "Cl",
            "p3d": {
              "x": 2.3243,
              "y": -0.0063,
              "z": 0.8189
            }
          }
        ],
        "bonds": []
      },
      "vertexId": 82,
      "buildingBlockId": 66,
      "buildingBlockType": "FRAGMENT",
      "isRCV": false,
      "properties": {
        "ATTACHMENT_POINTS": "1#Xlig:1:SINGLE:-0.0053%-0.0027%0.6300 "
      },
      "uniquefyingPropertyKeys": [],
      "allowedMutationTypes": [
        "DELETE",
        "EXTEND",
        "CHANGEBRANCH",
        "CHANGELINK",
        "ADDLINK",
        "DELETELINK",
        "DELETECHAIN"
      ],
      "vertexType": "MolecularFragment"
    },
    {
      "lstAPs": [
        {
          "id": 435821,
          "atomPositionNumber": 0,
          "atomPositionNumberInMol": 6,
          "apClass": {
            "rule": "LPyrrolidinylideneSubNS",
            "subClass": 0,
            "bndTyp": "SINGLE"
          },
          "dirVec": {
            "x": 1.1368,
            "y": 2.9892,
            "z": 6.3678
          }
        },
        {
          "id": 435822,
          "atomPositionNumber": 1,
          "atomPositionNumberInMol": 7,
          "apClass": {
            "rule": "MPyrrolidinylidene",
            "subClass": 1,
            "bndTyp": "SINGLE"
          },
          "dirVec": {
            "x": 1.1351,
            "y": 5.0475,
            "z": 3.8064
          }
        },
        {
          "id": 435823,
          "atomPositionNumber": 2,
          "atomPositionNumberInMol": 8,
          "apClass": {
            "rule": "LPyrrolidinylideneSubCGammaL",
            "subClass": 0,
            "bndTyp": "SINGLE"
          },
          "dirVec": {
            "x": -1.6533,
            "y": 3.6844,
            "z": 2.5584
          }
        },
        {
          "id": 435824,
          "atomPositionNumber": 2,
          "atomPositionNumberInMol": 8,
          "apClass": {
            "rule": "LPyrrolidinylideneSubCGammaS",
            "subClass": 0,
            "bndTyp": "SINGLE"
          },
          "dirVec": {
            "x": 0.2707,
            "y": 2.2373,
            "z": 1.9364
          }
        },
        {
          "id": 435825,
          "atomPositionNumber": 4,
          "atomPositionNumberInMol": 10,
          "apClass": {
            "rule": "LPyrrolidinylideneSubCAlpha",
            "subClass": 0,
            "bndTyp": "SINGLE"
          },
          "dirVec": {
            "x": -1.0798,
            "y": 0.961,
            "z": 6.3715
          }
        },
        {
          "id": 435826,
          "atomPositionNumber": 4,
          "atomPositionNumberInMol": 10,
          "apClass": {
            "rule": "LPyrrolidinylideneSubCAlpha",
            "subClass": 0,
            "bndTyp": "SINGLE"
          },
          "dirVec": {
            "x": 0.6851,
            "y": 0.1558,
            "z": 4.841
          }
        }
      ],
      "lstSymAPs": [
        {
          "symIds": [
            4,
            5
          ]
        }
      ],
      "mol": {
        "atoms": [
          {
            "elSymbol": "N",
            "p3d": {
              "x": 0.4064,
              "y": 2.6218,
              "z": 5.1898
            }
          },
          {
            "elSymbol": "C",
            "p3d": {
              "x": 0.2992,
              "y": 3.4375,
              "z": 4.1309
            }
          },
          {
            "elSymbol": "C",
            "p3d": {
              "x": -0.589,
              "y": 2.7266,
              "z": 3.1026
            }
          },
          {
            "elSymbol": "C",
            "p3d": {
              "x": -1.2268,
              "y": 1.5592,
              "z": 3.8965
            }
          },
          {
            "elSymbol": "C",
            "p3d": {
              "x": -0.3002,
              "y": 1.286,
              "z": 5.1014
            }
          },
          {
            "elSymbol": "H",
            "p3d": {
              "x": -2.2272,
              "y": 1.8381,
              "z": 4.2502
            }
          },
          {
            "elSymbol": "H",
            "p3d": {
              "x": -1.3141,
              "y": 0.6862,
              "z": 3.272
            }
          }
        ],
        "bonds": [
          {
            "atomIds": [
              0,
              1
            ],
            "bo": "SINGLE"
          },
          {
            "atomIds": [
              2,
              1
            ],
            "bo": "SINGLE"
          },
          {
            "atomIds": [
              3,
              2
            ],
            "bo": "SINGLE"
          },
          {
            "atomIds": [
              4,
              0
            ],
            "bo": "SINGLE"
          },
          {
            "atomIds": [
              5,
              3
            ],
            "bo": "SINGLE"
          },
          {
            "atomIds": [
              6,
              3
            ],
            "bo": "SINGLE"
          },
          {
            "atomIds": [
              3,
              4
            ],
            "bo": "SINGLE"
          }
        ]
      },
      "vertexId": 92,
      "buildingBlockId": 13,
      "buildingBlockType": "FRAGMENT",
      "isRCV": false,
      "properties": {
        "ATTACHMENT_POINTS": "1#LPyrrolidinylideneSubNS:0:SINGLE:1.1368%2.9892%6.3678 2#MPyrrolidinylidene:1:SINGLE:1.1351%5.0475%3.8064 3#LPyrrolidinylideneSubCGammaL:0:SINGLE:-1.6533%3.6844%2.5584,LPyrrolidinylideneSubCGammaS:0:SINGLE:0.2707%2.2373%1.9364 5#LPyrrolidinylideneSubCAlpha:0:SINGLE:-1.0798%0.9610%6.3715,LPyrrolidinylideneSubCAlpha:0:SINGLE:0.6851%0.1558%4.8410 "
      },
      "uniquefyingPropertyKeys": [],
      "allowedMutationTypes": [
        "DELETE",
        "EXTEND",
        "CHANGEBRANCH",
        "CHANGELINK",
        "ADDLINK",
        "DELETELINK",
        "DELETECHAIN"
      ],
      "vertexType": "MolecularFragment"
    },
    {
      "lstAPs": [
        {
          "id": 435827,
          "atomPositionNumber": 0,
          "atomPositionNumberInMol": 49,
          "apClass": {
            "rule": "Xlig",
            "subClass": 1,
            "bndTyp": "SINGLE"
          },
          "dirVec": {
            "x": -0.0053,
            "y": -0.0027,
            "z": 0.63
          }
        }
      ],
      "lstSymAPs": [],
      "mol": {
        "atoms": [
          {
            "elSymbol": "Cl",
            "p3d": {
              "x": 2.3243,
              "y": -0.0063,
              "z": 0.8189
            }
          }
        ],
        "bonds": []
      },
      "vertexId": 88,
      "buildingBlockId": 66,
      "buildingBlockType": "FRAGMENT",
      "isRCV": false,
      "properties": {
        "ATTACHMENT_POINTS": "1#Xlig:1:SINGLE:-0.0053%-0.0027%0.6300 "
      },
      "uniquefyingPropertyKeys": [],
      "allowedMutationTypes": [
        "DELETE",
        "EXTEND",
        "CHANGEBRANCH",
        "CHANGELINK",
        "ADDLINK",
        "DELETELINK",
        "DELETECHAIN"
      ],
      "vertexType": "MolecularFragment"
    },
    {
      "lstAPs": [
        {
          "id": 435876,
          "atomPositionNumber": 0,
          "atomPositionNumberInMol": 13,
          "apClass": {
            "rule": "SubArL",
            "subClass": 1,
            "bndTyp": "SINGLE"
          },
          "dirVec": {
            "x": 0.2957,
            "y": 0.3816,
            "z": -0.6358
          }
        }
      ],
      "lstSymAPs": [],
      "mol": {
        "atoms": [
          {
            "elSymbol": "C",
            "p3d": {
              "x": 1.7088,
              "y": 0.551,
              "z": -1.2192
            }
          },
          {
            "elSymbol": "C",
            "p3d": {
              "x": 4.2535,
              "y": 0.8673,
              "z": -2.2548
            }
          },
          {
            "elSymbol": "C",
            "p3d": {
              "x": 2.3329,
              "y": 1.7979,
              "z": -1.1377
            }
          },
          {
            "elSymbol": "C",
            "p3d": {
              "x": 2.3315,
              "y": -0.5114,
              "z": -1.8171
            }
          },
          {
            "elSymbol": "C",
            "p3d": {
              "x": 3.6062,
              "y": -0.3595,
              "z": -2.3299
            }
          },
          {
            "elSymbol": "C",
            "p3d": {
              "x": 3.6205,
              "y": 1.9526,
              "z": -1.657
            }
          },
          {
            "elSymbol": "H",
            "p3d": {
              "x": 4.116,
              "y": -1.2062,
              "z": -2.8187
            }
          },
          {
            "elSymbol": "H",
            "p3d": {
              "x": 4.1193,
              "y": 2.9144,
              "z": -1.5883
            }
          },
          {
            "elSymbol": "H",
            "p3d": {
              "x": 5.2485,
              "y": 0.9961,
              "z": -2.6688
            }
          },
          {
            "elSymbol": "C",
            "p3d": {
              "x": 1.6389,
              "y": 2.9732,
              "z": -0.4581
            }
          },
          {
            "elSymbol": "H",
            "p3d": {
              "x": 2.3787,
              "y": 3.6649,
              "z": -0.0604
            }
          },
          {
            "elSymbol": "H",
            "p3d": {
              "x": 1.0049,
              "y": 2.601,
              "z": 0.3676
            }
          },
          {
            "elSymbol": "H",
            "p3d": {
              "x": 1.0013,
              "y": 3.4961,
              "z": -1.199
            }
          },
          {
            "elSymbol": "C",
            "p3d": {
              "x": 1.6397,
              "y": -1.8757,
              "z": -1.9164
            }
          },
          {
            "elSymbol": "H",
            "p3d": {
              "x": 2.3747,
              "y": -2.6603,
              "z": -1.9613
            }
          },
          {
            "elSymbol": "H",
            "p3d": {
              "x": 1.0044,
              "y": -1.9015,
              "z": -2.8054
            }
          },
          {
            "elSymbol": "H",
            "p3d": {
              "x": 1.0057,
              "y": -2.0243,
              "z": -1.0149
            }
          }
        ],
        "bonds": [
          {
            "atomIds": [
              0,
              3
            ],
            "bo": "SINGLE"
          },
          {
            "atomIds": [
              3,
              4
            ],
            "bo": "DOUBLE"
          },
          {
            "atomIds": [
              1,
              4
            ],
            "bo": "SINGLE"
          },
          {
            "atomIds": [
              1,
              5
            ],
            "bo": "DOUBLE"
          },
          {
            "atomIds": [
              2,
              5
            ],
            "bo": "SINGLE"
          },
          {
            "atomIds": [
              0,
              2
            ],
            "bo": "DOUBLE"
          },
          {
            "atomIds": [
              4,
              6
            ],
            "bo": "SINGLE"
          },
          {
            "atomIds": [
              5,
              7
            ],
            "bo": "SINGLE"
          },
          {
            "atomIds": [
              1,
              8
            ],
            "bo": "SINGLE"
          },
          {
            "atomIds": [
              9,
              10
            ],
            "bo": "SINGLE"
          },
          {
            "atomIds": [
              9,
              11
            ],
            "bo": "SINGLE"
          },
          {
            "atomIds": [
              9,
              12
            ],
            "bo": "SINGLE"
          },
          {
            "atomIds": [
              2,
              9
            ],
            "bo": "SINGLE"
          },
          {
            "atomIds": [
              13,
              14
            ],
            "bo": "SINGLE"
          },
          {
            "atomIds": [
              13,
              15
            ],
            "bo": "SINGLE"
          },
          {
            "atomIds": [
              13,
              16
            ],
            "bo": "SINGLE"
          },
          {
            "atomIds": [
              3,
              13
            ],
            "bo": "SINGLE"
          }
        ]
      },
      "vertexId": 331637,
      "buildingBlockId": 37,
      "buildingBlockType": "FRAGMENT",
      "isRCV": false,
      "properties": {
        "ATTACHMENT_POINTS": "1#SubArL:1:SINGLE:0.2957%0.3816%-0.6358 "
      },
      "uniquefyingPropertyKeys": [],
      "allowedMutationTypes": [
        "DELETE",
        "EXTEND",
        "CHANGEBRANCH",
        "CHANGELINK",
        "ADDLINK",
        "DELETELINK",
        "DELETECHAIN"
      ],
      "vertexType": "MolecularFragment"
    },
    {
      "lstAPs": [
        {
          "id": 435877,
          "atomPositionNumber": 0,
          "atomPositionNumberInMol": 30,
          "apClass": {
            "rule": "LPyrrolidinylideneSubCGammaS",
            "subClass": 1,
            "bndTyp": "SINGLE"
          },
          "dirVec": {
            "x": 2.2209,
            "y": 11.3247,
            "z": 13.404
          }
        }
      ],
      "lstSymAPs": [],
      "mol": {
        "atoms": [
          {
            "elSymbol": "C",
            "p3d": {
              "x": 2.4548,
              "y": 10.2992,
              "z": 14.5411
            }
          },
          {
            "elSymbol": "H",
            "p3d": {
              "x": 3.4157,
              "y": 10.5073,
              "z": 14.981
            }
          },
          {
            "elSymbol": "H",
            "p3d": {
              "x": 1.6835,
              "y": 10.432,
              "z": 15.3041
            }
          },
          {
            "elSymbol": "C",
            "p3d": {
              "x": 2.4332,
              "y": 8.8302,
              "z": 14.0744
            }
          },
          {
            "elSymbol": "H",
            "p3d": {
              "x": 3.2041,
              "y": 8.6763,
              "z": 13.3353
            }
          },
          {
            "elSymbol": "H",
            "p3d": {
              "x": 1.4458,
              "y": 8.6074,
              "z": 13.6521
            }
          },
          {
            "elSymbol": "H",
            "p3d": {
              "x": 2.6045,
              "y": 8.1976,
              "z": 14.9512
            }
          }
        ],
        "bonds": [
          {
            "atomIds": [
              1,
              0
            ],
            "bo": "SINGLE"
          },
          {
            "atomIds": [
              2,
              0
            ],
            "bo": "SINGLE"
          },
          {
            "atomIds": [
              3,
              0
            ],
            "bo": "SINGLE"
          },
          {
            "atomIds": [
              4,
              3
            ],
            "bo": "SINGLE"
          },
          {
            "atomIds": [
              5,
              3
            ],
            "bo": "SINGLE"
          },
          {
            "atomIds": [
              6,
              3
            ],
            "bo": "SINGLE"
          }
        ]
      },
      "vertexId": 331642,
      "buildingBlockId": 23,
      "buildingBlockType": "FRAGMENT",
      "isRCV": false,
      "properties": {
        "ATTACHMENT_POINTS": "1#LPyrrolidinylideneSubCGammaS:1:SINGLE:2.2209%11.3247%13.4040 "
      },
      "uniquefyingPropertyKeys": [],
      "allowedMutationTypes": [
        "DELETE",
        "EXTEND",
        "CHANGEBRANCH",
        "CHANGELINK",
        "ADDLINK",
        "DELETELINK",
        "DELETECHAIN"
      ],
      "vertexType": "MolecularFragment"
    },
    {
      "lstAPs": [
        {
          "id": 435878,
          "atomPositionNumber": 0,
          "atomPositionNumberInMol": 37,
          "apClass": {
            "rule": "LPyrrolidinylideneSubCAlpha",
            "subClass": 1,
            "bndTyp": "SINGLE"
          },
          "dirVec": {
            "x": 10.5718,
            "y": 9.5818,
            "z": 19.5273
          }
        }
      ],
      "lstSymAPs": [],
      "mol": {
        "atoms": [
          {
            "elSymbol": "C",
            "p3d": {
              "x": 11.7977,
              "y": 8.6986,
              "z": 19.2649
            }
          },
          {
            "elSymbol": "H",
            "p3d": {
              "x": 11.6263,
              "y": 8.0849,
              "z": 18.3966
            }
          },
          {
            "elSymbol": "H",
            "p3d": {
              "x": 11.9867,
              "y": 8.0758,
              "z": 20.122
            }
          },
          {
            "elSymbol": "H",
            "p3d": {
              "x": 12.6717,
              "y": 9.3283,
              "z": 19.0876
            }
          }
        ],
        "bonds": [
          {
            "atomIds": [
              1,
              0
            ],
            "bo": "SINGLE"
          },
          {
            "atomIds": [
              2,
              0
            ],
            "bo": "SINGLE"
          },
          {
            "atomIds": [
              3,
              0
            ],
            "bo": "SINGLE"
          }
        ]
      },
      "vertexId": 331654,
      "buildingBlockId": 27,
      "buildingBlockType": "FRAGMENT",
      "isRCV": false,
      "properties": {
        "ATTACHMENT_POINTS": "1#LPyrrolidinylideneSubCAlpha:1:SINGLE:10.5718%9.5818%19.5273 "
      },
      "uniquefyingPropertyKeys": [],
      "allowedMutationTypes": [
        "DELETE",
        "EXTEND",
        "CHANGEBRANCH",
        "CHANGELINK",
        "ADDLINK",
        "DELETELINK",
        "DELETECHAIN"
      ],
      "vertexType": "MolecularFragment"
    },
    {
      "lstAPs": [
        {
          "id": 435879,
          "atomPositionNumber": 0,
          "atomPositionNumberInMol": 41,
          "apClass": {
            "rule": "LPyrrolidinylideneSubCAlpha",
            "subClass": 1,
            "bndTyp": "SINGLE"
          },
          "dirVec": {
            "x": 10.5718,
            "y": 9.5818,
            "z": 19.5273
          }
        }
      ],
      "lstSymAPs": [],
      "mol": {
        "atoms": [
          {
            "elSymbol": "C",
            "p3d": {
              "x": 11.7977,
              "y": 8.6986,
              "z": 19.2649
            }
          },
          {
            "elSymbol": "H",
            "p3d": {
              "x": 11.6263,
              "y": 8.0849,
              "z": 18.3966
            }
          },
          {
            "elSymbol": "H",
            "p3d": {
              "x": 11.9867,
              "y": 8.0758,
              "z": 20.122
            }
          },
          {
            "elSymbol": "H",
            "p3d": {
              "x": 12.6717,
              "y": 9.3283,
              "z": 19.0876
            }
          }
        ],
        "bonds": [
          {
            "atomIds": [
              1,
              0
            ],
            "bo": "SINGLE"
          },
          {
            "atomIds": [
              2,
              0
            ],
            "bo": "SINGLE"
          },
          {
            "atomIds": [
              3,
              0
            ],
            "bo": "SINGLE"
          }
        ]
      },
      "vertexId": 334477,
      "buildingBlockId": 27,
      "buildingBlockType": "FRAGMENT",
      "isRCV": false,
      "properties": {
        "ATTACHMENT_POINTS": "1#LPyrrolidinylideneSubCAlpha:1:SINGLE:10.5718%9.5818%19.5273 "
      },
      "uniquefyingPropertyKeys": [],
      "allowedMutationTypes": [
        "DELETE",
        "EXTEND",
        "CHANGEBRANCH",
        "CHANGELINK",
        "ADDLINK",
        "DELETELINK",
        "DELETECHAIN"
      ],
      "vertexType": "MolecularFragment"
    },
    {
      "lstAPs": [
        {
          "id": 435880,
          "atomPositionNumber": 0,
          "atomPositionNumberInMol": 45,
          "apClass": {
            "rule": "me",
            "subClass": 1,
            "bndTyp": "SINGLE"
          },
          "dirVec": {
            "x": 6.4052,
            "y": 0.4666,
            "z": 7.6784
          }
        }
      ],
      "lstSymAPs": [],
      "mol": {
        "atoms": [
          {
            "elSymbol": "C",
            "p3d": {
              "x": 5.1845,
              "y": -0.3158,
              "z": 7.9034
            }
          },
          {
            "elSymbol": "H",
            "p3d": {
              "x": 4.4018,
              "y": 0.0156,
              "z": 7.2277
            }
          },
          {
            "elSymbol": "H",
            "p3d": {
              "x": 4.8466,
              "y": -0.2064,
              "z": 8.9326
            }
          },
          {
            "elSymbol": "H",
            "p3d": {
              "x": 5.4032,
              "y": -1.3837,
              "z": 7.7252
            }
          }
        ],
        "bonds": [
          {
            "atomIds": [
              1,
              0
            ],
            "bo": "SINGLE"
          },
          {
            "atomIds": [
              2,
              0
            ],
            "bo": "SINGLE"
          },
          {
            "atomIds": [
              3,
              0
            ],
            "bo": "SINGLE"
          }
        ]
      },
      "vertexId": 331651,
      "buildingBlockId": 1,
      "buildingBlockType": "CAP",
      "isRCV": false,
      "properties": {
        "ATTACHMENT_POINTS": "1#me:1:SINGLE:6.4052%0.4666%7.6784 "
      },
      "uniquefyingPropertyKeys": [],
      "allowedMutationTypes": [
        "DELETE",
        "EXTEND",
        "CHANGEBRANCH",
        "CHANGELINK",
        "ADDLINK",
        "DELETELINK",
        "DELETECHAIN"
      ],
      "vertexType": "MolecularFragment"
    }
  ],
  "gEdges": [
    {
      "srcAPID": 435817,
      "trgAPID": 435820,
      "bondType": "SINGLE"
    },
    {
      "srcAPID": 435819,
      "trgAPID": 435822,
      "bondType": "SINGLE"
    },
    {
      "srcAPID": 435818,
      "trgAPID": 435827,
      "bondType": "SINGLE"
    },
    {
      "srcAPID": 435821,
      "trgAPID": 435876,
      "bondType": "SINGLE"
    },
    {
      "srcAPID": 435823,
      "trgAPID": 435877,
      "bondType": "SINGLE"
    },
    {
      "srcAPID": 435825,
      "trgAPID": 435878,
      "bondType": "SINGLE"
    },
    {
      "srcAPID": 435826,
      "trgAPID": 435879,
      "bondType": "SINGLE"
    },
    {
      "srcAPID": 435824,
      "trgAPID": 435880,
      "bondType": "SINGLE"
    }
  ],
  "gRings": [],
  "symVertices": [
    {
      "symIds": [
        331654,
        334477
      ]
    }
  ]
}

> <SMILES>
[Pt](C#O)(Cl)([C]1N(C(C(C1(C([H])([H])C([H])([H])[H])C([H])([H])[H])([H])[H])(C([H])([H])[H])C([H])([H])[H])C=2C(=C(C(=C(C2C([H])([H])[H])[H])[H])[H])C([H])([H])[H])Cl

$$$$
