M00008701
  CDK     04222211493D

 51 53  0  0  0  0  0  0  0  0999 V2000
   -0.4175    2.4822    0.0517 Pt  0  0  0  0  0  0  0  0  0  0  0  0
   -0.4018    4.4109   -0.0750 C   0  0  0  0  0  0  0  0  0  0  0  0
   -0.3839    5.5519   -0.1485 O   0  0  0  0  0  0  0  0  0  0  0  0
    1.5658    2.4889    0.2833 C   0  0  0  0  0  0  0  0  0  0  0  0
    2.7183    2.4820    0.3710 N   0  0  0  0  0  0  0  0  0  0  0  0
   -0.0498   -0.3646   -0.7385 N   0  0  0  0  0  0  0  0  0  0  0  0
   -0.4155    0.4833    0.2088 C   0  0  2  0  0  0  0  0  0  0  0  0
   -0.8877   -0.2594    1.4632 C   0  0  2  0  0  0  0  0  0  0  0  0
   -0.9084   -1.7578    1.0152 C   0  0  0  0  0  0  0  0  0  0  0  0
   -0.1700   -1.8489   -0.3471 C   0  0  0  0  0  0  0  0  0  0  0  0
   -0.4331   -2.4039    1.7745 H   0  0  0  0  0  0  0  0  0  0  0  0
   -1.9470   -2.1231    0.9326 H   0  0  0  0  0  0  0  0  0  0  0  0
    0.4403    0.0342   -2.0496 C   0  0  0  0  0  0  0  0  0  0  0  0
    1.4812    0.7148   -4.5418 C   0  0  0  0  0  0  0  0  0  0  0  0
   -0.4497    0.2734   -3.1187 C   0  0  0  0  0  0  0  0  0  0  0  0
    1.8312    0.1645   -2.2131 C   0  0  0  0  0  0  0  0  0  0  0  0
    2.3477    0.5017   -3.4625 C   0  0  0  0  0  0  0  0  0  0  0  0
    0.1019    0.6070   -4.3691 C   0  0  0  0  0  0  0  0  0  0  0  0
    2.5031    0.0265   -1.3621 H   0  0  0  0  0  0  0  0  0  0  0  0
    3.4245    0.6120   -3.5932 H   0  0  0  0  0  0  0  0  0  0  0  0
   -0.5638    0.7946   -5.2125 H   0  0  0  0  0  0  0  0  0  0  0  0
    1.8875    0.9768   -5.5197 H   0  0  0  0  0  0  0  0  0  0  0  0
   -1.9288    0.2221   -2.9553 C   0  0  0  0  0  0  0  0  0  0  0  0
   -2.3053    1.1597   -2.5036 H   0  0  0  0  0  0  0  0  0  0  0  0
   -2.2673   -0.5994   -2.3030 H   0  0  0  0  0  0  0  0  0  0  0  0
   -2.4597    0.1090   -3.9109 H   0  0  0  0  0  0  0  0  0  0  0  0
   -2.2878    0.2526    1.8022 C   0  0  0  0  0  0  0  0  0  0  0  0
   -2.9799    0.1772    0.9517 H   0  0  0  0  0  0  0  0  0  0  0  0
   -2.7400   -0.3049    2.6319 H   0  0  0  0  0  0  0  0  0  0  0  0
   -2.2611    1.3139    2.1008 H   0  0  0  0  0  0  0  0  0  0  0  0
    0.0820   -0.1064    2.6280 C   0  0  0  0  0  0  0  0  0  0  0  0
    1.4544    0.0736    2.4021 C   0  0  0  0  0  0  0  0  0  0  0  0
    1.8499    0.1453    1.3888 H   0  0  0  0  0  0  0  0  0  0  0  0
    2.3421    0.1812    3.4768 C   0  0  0  0  0  0  0  0  0  0  0  0
    3.4025    0.3483    3.2836 H   0  0  0  0  0  0  0  0  0  0  0  0
    1.8726    0.0890    4.7897 C   0  0  0  0  0  0  0  0  0  0  0  0
    2.5640    0.1761    5.6260 H   0  0  0  0  0  0  0  0  0  0  0  0
    0.5085   -0.1103    5.0220 C   0  0  0  0  0  0  0  0  0  0  0  0
    0.1356   -0.1851    6.0426 H   0  0  0  0  0  0  0  0  0  0  0  0
   -0.3814   -0.2090    3.9494 C   0  0  0  0  0  0  0  0  0  0  0  0
   -1.4414   -0.3625    4.1511 H   0  0  0  0  0  0  0  0  0  0  0  0
   -0.9791   -2.5970   -1.4008 C   0  0  0  0  0  0  0  0  0  0  0  0
   -0.4368   -2.6838   -2.3531 H   0  0  0  0  0  0  0  0  0  0  0  0
   -1.9360   -2.0959   -1.6258 H   0  0  0  0  0  0  0  0  0  0  0  0
   -1.2112   -3.6173   -1.0703 H   0  0  0  0  0  0  0  0  0  0  0  0
    1.2315   -2.4384   -0.2065 C   0  0  0  0  0  0  0  0  0  0  0  0
    1.8297   -1.9173    0.5548 H   0  0  0  0  0  0  0  0  0  0  0  0
    1.7956   -2.4019   -1.1480 H   0  0  0  0  0  0  0  0  0  0  0  0
    1.1854   -3.4936    0.0939 H   0  0  0  0  0  0  0  0  0  0  0  0
   -2.3883    2.5073   -0.2735 C   0  0  0  0  0  0  0  0  0  0  0  0
   -3.5232    2.5204   -0.4933 N   0  0  0  0  0  0  0  0  0  0  0  0
  2  3  3  0  0  0  0
  1  2  1  0  0  0  0
  4  5  3  0  0  0  0
  1  4  1  0  0  0  0
  6  7  1  0  0  0  0
  8  7  1  0  0  0  0
  9  8  1  0  0  0  0
 10  6  1  0  0  0  0
 11  9  1  0  0  0  0
 12  9  1  0  0  0  0
  9 10  1  0  0  0  0
  1  7  1  0  0  0  0
 13 16  1  0  0  0  0
 16 17  2  0  0  0  0
 14 17  1  0  0  0  0
 14 18  2  0  0  0  0
 15 18  1  0  0  0  0
 13 15  2  0  0  0  0
 17 20  1  0  0  0  0
 18 21  1  0  0  0  0
 14 22  1  0  0  0  0
 16 19  1  0  0  0  0
 23 24  1  0  0  0  0
 23 25  1  0  0  0  0
 23 26  1  0  0  0  0
 15 23  1  0  0  0  0
  6 13  1  0  0  0  0
 28 27  1  0  0  0  0
 29 27  1  0  0  0  0
 30 27  1  0  0  0  0
  8 27  1  0  0  0  0
 32 31  1  0  0  0  0
 33 32  1  0  0  0  0
 34 32  2  0  0  0  0
 35 34  1  0  0  0  0
 36 34  1  0  0  0  0
 37 36  1  0  0  0  0
 38 36  2  0  0  0  0
 39 38  1  0  0  0  0
 40 31  2  0  0  0  0
 41 40  1  0  0  0  0
 38 40  1  0  0  0  0
  8 31  1  0  0  0  0
 43 42  1  0  0  0  0
 44 42  1  0  0  0  0
 45 42  1  0  0  0  0
 10 42  1  0  0  0  0
 47 46  1  0  0  0  0
 48 46  1  0  0  0  0
 49 46  1  0  0  0  0
 10 46  1  0  0  0  0
 50 51  3  0  0  0  0
  1 50  1  0  0  0  0
M  END
> <PM6_ENERGY>
365.023

> <UID>
FOSXVOCTXZMZPM-WJTZGODFNA-N

> <FITNESS>
1.1435

> <GCODE>
9646

> <GraphENC>
9646 72_1_0,81_66_1,92_14_1,87_66_1,194601_37_1,194615_23_1,194611_27_1,196051_28_1,194620_28_1, 72_0_81_0_SINGLE_Xlig:0_Xlig:1,72_2_92_1_SINGLE_scaff:0_MPyrrolidinylidene:1,72_1_87_0_SINGLE_Xlig:0_Xlig:1,92_0_194601_0_SINGLE_LPyrrolidinylideneSubNS:0_SubArM:1,92_3_194615_0_SINGLE_LPyrrolidinylideneSubCGammaS:0_LPyrrolidinylideneSubCGammaS:1,92_2_194611_0_SINGLE_LPyrrolidinylideneSubCGammaL:0_LPyrrolidinylideneSubCGammaL:1,92_5_196051_0_SINGLE_LPyrrolidinylideneSubCAlpha:0_LPyrrolidinylideneSubCAlpha:1,92_4_194620_0_SINGLE_LPyrrolidinylideneSubCAlpha:0_LPyrrolidinylideneSubCAlpha:1, SymmetricSet [symIds=[196051, 194620]] 

> <GraphJson>
{
  "graphId": 9646,
  "gVertices": [
    {
      "lstAPs": [
        {
          "id": 256209,
          "atomPositionNumber": 0,
          "atomPositionNumberInMol": 0,
          "apClass": {
            "rule": "Xlig",
            "subClass": 0,
            "bndTyp": "SINGLE"
          },
          "dirVec": {
            "x": -2.3339,
            "y": -0.0087,
            "z": 0.8172
          }
        },
        {
          "id": 256210,
          "atomPositionNumber": 0,
          "atomPositionNumberInMol": 0,
          "apClass": {
            "rule": "Xlig",
            "subClass": 0,
            "bndTyp": "SINGLE"
          },
          "dirVec": {
            "x": 2.336,
            "y": -5.0E-4,
            "z": 0.829
          }
        },
        {
          "id": 256211,
          "atomPositionNumber": 0,
          "atomPositionNumberInMol": 0,
          "apClass": {
            "rule": "scaff",
            "subClass": 0,
            "bndTyp": "SINGLE"
          },
          "dirVec": {
            "x": -0.0095,
            "y": 0.0046,
            "z": -1.7113
          }
        }
      ],
      "lstSymAPs": [
        {
          "symIds": [
            0,
            1
          ]
        }
      ],
      "mol": {
        "atoms": [
          {
            "elSymbol": "Pt",
            "p3d": {
              "x": -0.0098,
              "y": 0.0049,
              "z": 0.6289
            }
          },
          {
            "elSymbol": "C",
            "p3d": {
              "x": -6.0E-4,
              "y": 0.0016,
              "z": 2.5609
            }
          },
          {
            "elSymbol": "O",
            "p3d": {
              "x": 0.0025,
              "y": -0.0041,
              "z": 3.6974
            }
          },
          {
            "elSymbol": "Du",
            "p3d": {
              "x": -0.007,
              "y": 1.0013,
              "z": 0.6372
            }
          },
          {
            "elSymbol": "Du",
            "p3d": {
              "x": -0.0014,
              "y": 0.9902,
              "z": 2.5698
            }
          }
        ],
        "bonds": [
          {
            "atomIds": [
              1,
              2
            ],
            "bo": "TRIPLE"
          },
          {
            "atomIds": [
              0,
              1
            ],
            "bo": "SINGLE"
          },
          {
            "atomIds": [
              3,
              0
            ],
            "bo": "SINGLE"
          },
          {
            "atomIds": [
              4,
              1
            ],
            "bo": "SINGLE"
          }
        ]
      },
      "vertexId": 72,
      "buildingBlockId": 0,
      "buildingBlockType": "SCAFFOLD",
      "isRCV": false,
      "properties": {
        "ATTACHMENT_POINTS": "1#Xlig:0:SINGLE:-2.3339%-0.0087%0.8172,Xlig:0:SINGLE:2.3360%-0.0005%0.8290,scaff:0:SINGLE:-0.0095%0.0046%-1.7113 "
      },
      "uniquefyingPropertyKeys": [],
      "allowedMutationTypes": [
        "DELETE",
        "EXTEND",
        "CHANGEBRANCH",
        "CHANGELINK",
        "ADDLINK",
        "DELETELINK",
        "DELETECHAIN"
      ],
      "vertexType": "MolecularFragment"
    },
    {
      "lstAPs": [
        {
          "id": 256212,
          "atomPositionNumber": 0,
          "atomPositionNumberInMol": 5,
          "apClass": {
            "rule": "Xlig",
            "subClass": 1,
            "bndTyp": "SINGLE"
          },
          "dirVec": {
            "x": 0.0192,
            "y": -0.0048,
            "z": -0.5645
          }
        }
      ],
      "lstSymAPs": [],
      "mol": {
        "atoms": [
          {
            "elSymbol": "C",
            "p3d": {
              "x": -1.967,
              "y": -0.0075,
              "z": -0.4937
            }
          },
          {
            "elSymbol": "N",
            "p3d": {
              "x": -3.1263,
              "y": -0.0054,
              "z": -0.4354
            }
          },
          {
            "elSymbol": "Du",
            "p3d": {
              "x": -1.9744,
              "y": 0.9926,
              "z": -0.5036
            }
          }
        ],
        "bonds": [
          {
            "atomIds": [
              0,
              1
            ],
            "bo": "TRIPLE"
          },
          {
            "atomIds": [
              2,
              0
            ],
            "bo": "SINGLE"
          }
        ]
      },
      "vertexId": 81,
      "buildingBlockId": 65,
      "buildingBlockType": "FRAGMENT",
      "isRCV": false,
      "properties": {
        "ATTACHMENT_POINTS": "1#Xlig:1:SINGLE:0.0192%-0.0048%-0.5645 "
      },
      "uniquefyingPropertyKeys": [],
      "allowedMutationTypes": [
        "DELETE",
        "EXTEND",
        "CHANGEBRANCH",
        "CHANGELINK",
        "ADDLINK",
        "DELETELINK",
        "DELETECHAIN"
      ],
      "vertexType": "MolecularFragment"
    },
    {
      "lstAPs": [
        {
          "id": 256213,
          "atomPositionNumber": 0,
          "atomPositionNumberInMol": 8,
          "apClass": {
            "rule": "LPyrrolidinylideneSubNS",
            "subClass": 0,
            "bndTyp": "SINGLE"
          },
          "dirVec": {
            "x": 1.1368,
            "y": 2.9892,
            "z": 6.3678
          }
        },
        {
          "id": 256214,
          "atomPositionNumber": 1,
          "atomPositionNumberInMol": 9,
          "apClass": {
            "rule": "MPyrrolidinylidene",
            "subClass": 1,
            "bndTyp": "SINGLE"
          },
          "dirVec": {
            "x": 1.1351,
            "y": 5.0475,
            "z": 3.8064
          }
        },
        {
          "id": 256215,
          "atomPositionNumber": 2,
          "atomPositionNumberInMol": 10,
          "apClass": {
            "rule": "LPyrrolidinylideneSubCGammaL",
            "subClass": 0,
            "bndTyp": "SINGLE"
          },
          "dirVec": {
            "x": -1.6533,
            "y": 3.6844,
            "z": 2.5584
          }
        },
        {
          "id": 256216,
          "atomPositionNumber": 2,
          "atomPositionNumberInMol": 10,
          "apClass": {
            "rule": "LPyrrolidinylideneSubCGammaS",
            "subClass": 0,
            "bndTyp": "SINGLE"
          },
          "dirVec": {
            "x": 0.2707,
            "y": 2.2373,
            "z": 1.9364
          }
        },
        {
          "id": 256217,
          "atomPositionNumber": 4,
          "atomPositionNumberInMol": 12,
          "apClass": {
            "rule": "LPyrrolidinylideneSubCAlpha",
            "subClass": 0,
            "bndTyp": "SINGLE"
          },
          "dirVec": {
            "x": -1.0798,
            "y": 0.961,
            "z": 6.3715
          }
        },
        {
          "id": 256218,
          "atomPositionNumber": 4,
          "atomPositionNumberInMol": 12,
          "apClass": {
            "rule": "LPyrrolidinylideneSubCAlpha",
            "subClass": 0,
            "bndTyp": "SINGLE"
          },
          "dirVec": {
            "x": 0.6851,
            "y": 0.1558,
            "z": 4.841
          }
        }
      ],
      "lstSymAPs": [
        {
          "symIds": [
            4,
            5
          ]
        }
      ],
      "mol": {
        "atoms": [
          {
            "elSymbol": "N",
            "p3d": {
              "x": 0.4064,
              "y": 2.6218,
              "z": 5.1898
            }
          },
          {
            "elSymbol": "C",
            "p3d": {
              "x": 0.2992,
              "y": 3.4375,
              "z": 4.1309
            }
          },
          {
            "elSymbol": "C",
            "p3d": {
              "x": -0.589,
              "y": 2.7266,
              "z": 3.1026
            }
          },
          {
            "elSymbol": "C",
            "p3d": {
              "x": -1.2268,
              "y": 1.5592,
              "z": 3.8965
            }
          },
          {
            "elSymbol": "C",
            "p3d": {
              "x": -0.3002,
              "y": 1.286,
              "z": 5.1014
            }
          },
          {
            "elSymbol": "H",
            "p3d": {
              "x": -2.2272,
              "y": 1.8381,
              "z": 4.2502
            }
          },
          {
            "elSymbol": "H",
            "p3d": {
              "x": -1.3141,
              "y": 0.6862,
              "z": 3.272
            }
          }
        ],
        "bonds": [
          {
            "atomIds": [
              0,
              1
            ],
            "bo": "SINGLE"
          },
          {
            "atomIds": [
              2,
              1
            ],
            "bo": "SINGLE"
          },
          {
            "atomIds": [
              3,
              2
            ],
            "bo": "SINGLE"
          },
          {
            "atomIds": [
              4,
              0
            ],
            "bo": "SINGLE"
          },
          {
            "atomIds": [
              5,
              3
            ],
            "bo": "SINGLE"
          },
          {
            "atomIds": [
              6,
              3
            ],
            "bo": "SINGLE"
          },
          {
            "atomIds": [
              3,
              4
            ],
            "bo": "SINGLE"
          }
        ]
      },
      "vertexId": 92,
      "buildingBlockId": 13,
      "buildingBlockType": "FRAGMENT",
      "isRCV": false,
      "properties": {
        "ATTACHMENT_POINTS": "1#LPyrrolidinylideneSubNS:0:SINGLE:1.1368%2.9892%6.3678 2#MPyrrolidinylidene:1:SINGLE:1.1351%5.0475%3.8064 3#LPyrrolidinylideneSubCGammaL:0:SINGLE:-1.6533%3.6844%2.5584,LPyrrolidinylideneSubCGammaS:0:SINGLE:0.2707%2.2373%1.9364 5#LPyrrolidinylideneSubCAlpha:0:SINGLE:-1.0798%0.9610%6.3715,LPyrrolidinylideneSubCAlpha:0:SINGLE:0.6851%0.1558%4.8410 "
      },
      "uniquefyingPropertyKeys": [],
      "allowedMutationTypes": [
        "DELETE",
        "EXTEND",
        "CHANGEBRANCH",
        "CHANGELINK",
        "ADDLINK",
        "DELETELINK",
        "DELETECHAIN"
      ],
      "vertexType": "MolecularFragment"
    },
    {
      "lstAPs": [
        {
          "id": 256219,
          "atomPositionNumber": 0,
          "atomPositionNumberInMol": 52,
          "apClass": {
            "rule": "Xlig",
            "subClass": 1,
            "bndTyp": "SINGLE"
          },
          "dirVec": {
            "x": 0.0192,
            "y": -0.0048,
            "z": -0.5645
          }
        }
      ],
      "lstSymAPs": [],
      "mol": {
        "atoms": [
          {
            "elSymbol": "C",
            "p3d": {
              "x": -1.967,
              "y": -0.0075,
              "z": -0.4937
            }
          },
          {
            "elSymbol": "N",
            "p3d": {
              "x": -3.1263,
              "y": -0.0054,
              "z": -0.4354
            }
          },
          {
            "elSymbol": "Du",
            "p3d": {
              "x": -1.9744,
              "y": 0.9926,
              "z": -0.5036
            }
          }
        ],
        "bonds": [
          {
            "atomIds": [
              0,
              1
            ],
            "bo": "TRIPLE"
          },
          {
            "atomIds": [
              2,
              0
            ],
            "bo": "SINGLE"
          }
        ]
      },
      "vertexId": 87,
      "buildingBlockId": 65,
      "buildingBlockType": "FRAGMENT",
      "isRCV": false,
      "properties": {
        "ATTACHMENT_POINTS": "1#Xlig:1:SINGLE:0.0192%-0.0048%-0.5645 "
      },
      "uniquefyingPropertyKeys": [],
      "allowedMutationTypes": [
        "DELETE",
        "EXTEND",
        "CHANGEBRANCH",
        "CHANGELINK",
        "ADDLINK",
        "DELETELINK",
        "DELETECHAIN"
      ],
      "vertexType": "MolecularFragment"
    },
    {
      "lstAPs": [
        {
          "id": 256268,
          "atomPositionNumber": 0,
          "atomPositionNumberInMol": 15,
          "apClass": {
            "rule": "SubArM",
            "subClass": 1,
            "bndTyp": "SINGLE"
          },
          "dirVec": {
            "x": 0.3016,
            "y": 0.3831,
            "z": -0.6449
          }
        }
      ],
      "lstSymAPs": [],
      "mol": {
        "atoms": [
          {
            "elSymbol": "C",
            "p3d": {
              "x": 1.7096,
              "y": 0.5525,
              "z": -1.2136
            }
          },
          {
            "elSymbol": "C",
            "p3d": {
              "x": 4.2502,
              "y": 0.8767,
              "z": -2.2636
            }
          },
          {
            "elSymbol": "C",
            "p3d": {
              "x": 2.3368,
              "y": 1.7899,
              "z": -1.1199
            }
          },
          {
            "elSymbol": "C",
            "p3d": {
              "x": 2.344,
              "y": -0.5151,
              "z": -1.819
            }
          },
          {
            "elSymbol": "C",
            "p3d": {
              "x": 3.6162,
              "y": -0.3625,
              "z": -2.3439
            }
          },
          {
            "elSymbol": "C",
            "p3d": {
              "x": 3.6039,
              "y": 1.9353,
              "z": -1.6584
            }
          },
          {
            "elSymbol": "H",
            "p3d": {
              "x": 1.8411,
              "y": -1.493,
              "z": -1.8837
            }
          },
          {
            "elSymbol": "H",
            "p3d": {
              "x": 4.113,
              "y": -1.2006,
              "z": -2.8069
            }
          },
          {
            "elSymbol": "H",
            "p3d": {
              "x": 4.1107,
              "y": 2.9115,
              "z": -1.5913
            }
          },
          {
            "elSymbol": "H",
            "p3d": {
              "x": 5.2516,
              "y": 0.992,
              "z": -2.67
            }
          },
          {
            "elSymbol": "C",
            "p3d": {
              "x": 1.6301,
              "y": 2.9729,
              "z": -0.4606
            }
          },
          {
            "elSymbol": "H",
            "p3d": {
              "x": 2.3743,
              "y": 3.6775,
              "z": -0.0646
            }
          },
          {
            "elSymbol": "H",
            "p3d": {
              "x": 1.0016,
              "y": 2.6144,
              "z": 0.3512
            }
          },
          {
            "elSymbol": "H",
            "p3d": {
              "x": 1.0097,
              "y": 3.4845,
              "z": -1.1971
            }
          }
        ],
        "bonds": [
          {
            "atomIds": [
              0,
              3
            ],
            "bo": "SINGLE"
          },
          {
            "atomIds": [
              3,
              4
            ],
            "bo": "DOUBLE"
          },
          {
            "atomIds": [
              1,
              4
            ],
            "bo": "SINGLE"
          },
          {
            "atomIds": [
              1,
              5
            ],
            "bo": "DOUBLE"
          },
          {
            "atomIds": [
              2,
              5
            ],
            "bo": "SINGLE"
          },
          {
            "atomIds": [
              0,
              2
            ],
            "bo": "DOUBLE"
          },
          {
            "atomIds": [
              4,
              7
            ],
            "bo": "SINGLE"
          },
          {
            "atomIds": [
              5,
              8
            ],
            "bo": "SINGLE"
          },
          {
            "atomIds": [
              1,
              9
            ],
            "bo": "SINGLE"
          },
          {
            "atomIds": [
              3,
              6
            ],
            "bo": "SINGLE"
          },
          {
            "atomIds": [
              10,
              11
            ],
            "bo": "SINGLE"
          },
          {
            "atomIds": [
              10,
              12
            ],
            "bo": "SINGLE"
          },
          {
            "atomIds": [
              10,
              13
            ],
            "bo": "SINGLE"
          },
          {
            "atomIds": [
              2,
              10
            ],
            "bo": "SINGLE"
          }
        ]
      },
      "vertexId": 194601,
      "buildingBlockId": 36,
      "buildingBlockType": "FRAGMENT",
      "isRCV": false,
      "properties": {
        "ATTACHMENT_POINTS": "1#SubArM:1:SINGLE:0.3016%0.3831%-0.6449 "
      },
      "uniquefyingPropertyKeys": [],
      "allowedMutationTypes": [
        "DELETE",
        "EXTEND",
        "CHANGEBRANCH",
        "CHANGELINK",
        "ADDLINK",
        "DELETELINK",
        "DELETECHAIN"
      ],
      "vertexType": "MolecularFragment"
    },
    {
      "lstAPs": [
        {
          "id": 256269,
          "atomPositionNumber": 0,
          "atomPositionNumberInMol": 29,
          "apClass": {
            "rule": "LPyrrolidinylideneSubCGammaS",
            "subClass": 1,
            "bndTyp": "SINGLE"
          },
          "dirVec": {
            "x": 1.4399,
            "y": 1.6623,
            "z": 2.2907
          }
        }
      ],
      "lstSymAPs": [],
      "mol": {
        "atoms": [
          {
            "elSymbol": "C",
            "p3d": {
              "x": 2.8634,
              "y": 1.6303,
              "z": 1.7249
            }
          },
          {
            "elSymbol": "H",
            "p3d": {
              "x": 2.8236,
              "y": 1.7916,
              "z": 0.6345
            }
          },
          {
            "elSymbol": "H",
            "p3d": {
              "x": 3.4679,
              "y": 2.4143,
              "z": 2.1805
            }
          },
          {
            "elSymbol": "H",
            "p3d": {
              "x": 3.3186,
              "y": 0.6663,
              "z": 1.919
            }
          }
        ],
        "bonds": [
          {
            "atomIds": [
              1,
              0
            ],
            "bo": "SINGLE"
          },
          {
            "atomIds": [
              2,
              0
            ],
            "bo": "SINGLE"
          },
          {
            "atomIds": [
              3,
              0
            ],
            "bo": "SINGLE"
          }
        ]
      },
      "vertexId": 194615,
      "buildingBlockId": 22,
      "buildingBlockType": "FRAGMENT",
      "isRCV": false,
      "properties": {
        "ATTACHMENT_POINTS": "1#LPyrrolidinylideneSubCGammaS:1:SINGLE:1.4399%1.6623%2.2907 "
      },
      "uniquefyingPropertyKeys": [],
      "allowedMutationTypes": [
        "DELETE",
        "EXTEND",
        "CHANGEBRANCH",
        "CHANGELINK",
        "ADDLINK",
        "DELETELINK",
        "DELETECHAIN"
      ],
      "vertexType": "MolecularFragment"
    },
    {
      "lstAPs": [
        {
          "id": 256270,
          "atomPositionNumber": 0,
          "atomPositionNumberInMol": 33,
          "apClass": {
            "rule": "LPyrrolidinylideneSubCGammaL",
            "subClass": 1,
            "bndTyp": "SINGLE"
          },
          "dirVec": {
            "x": 8.8728,
            "y": 5.0935,
            "z": 2.2174
          }
        }
      ],
      "lstSymAPs": [],
      "mol": {
        "atoms": [
          {
            "elSymbol": "C",
            "p3d": {
              "x": 7.9506,
              "y": 6.1283,
              "z": 1.5494
            }
          },
          {
            "elSymbol": "C",
            "p3d": {
              "x": 7.8748,
              "y": 7.4195,
              "z": 2.083
            }
          },
          {
            "elSymbol": "H",
            "p3d": {
              "x": 8.4457,
              "y": 7.6798,
              "z": 2.9614
            }
          },
          {
            "elSymbol": "C",
            "p3d": {
              "x": 7.0592,
              "y": 8.4018,
              "z": 1.495
            }
          },
          {
            "elSymbol": "H",
            "p3d": {
              "x": 7.0227,
              "y": 9.4119,
              "z": 1.9228
            }
          },
          {
            "elSymbol": "C",
            "p3d": {
              "x": 6.3461,
              "y": 8.1162,
              "z": 0.3594
            }
          },
          {
            "elSymbol": "H",
            "p3d": {
              "x": 5.6951,
              "y": 8.8813,
              "z": -0.0885
            }
          },
          {
            "elSymbol": "C",
            "p3d": {
              "x": 6.4171,
              "y": 6.8469,
              "z": -0.1712
            }
          },
          {
            "elSymbol": "H",
            "p3d": {
              "x": 5.8506,
              "y": 6.6122,
              "z": -1.082
            }
          },
          {
            "elSymbol": "C",
            "p3d": {
              "x": 7.2299,
              "y": 5.8786,
              "z": 0.4163
            }
          },
          {
            "elSymbol": "H",
            "p3d": {
              "x": 7.2623,
              "y": 4.877,
              "z": -0.0385
            }
          }
        ],
        "bonds": [
          {
            "atomIds": [
              1,
              0
            ],
            "bo": "SINGLE"
          },
          {
            "atomIds": [
              2,
              1
            ],
            "bo": "SINGLE"
          },
          {
            "atomIds": [
              3,
              1
            ],
            "bo": "DOUBLE"
          },
          {
            "atomIds": [
              4,
              3
            ],
            "bo": "SINGLE"
          },
          {
            "atomIds": [
              5,
              3
            ],
            "bo": "SINGLE"
          },
          {
            "atomIds": [
              6,
              5
            ],
            "bo": "SINGLE"
          },
          {
            "atomIds": [
              7,
              5
            ],
            "bo": "DOUBLE"
          },
          {
            "atomIds": [
              8,
              7
            ],
            "bo": "SINGLE"
          },
          {
            "atomIds": [
              9,
              0
            ],
            "bo": "DOUBLE"
          },
          {
            "atomIds": [
              10,
              9
            ],
            "bo": "SINGLE"
          },
          {
            "atomIds": [
              7,
              9
            ],
            "bo": "SINGLE"
          }
        ]
      },
      "vertexId": 194611,
      "buildingBlockId": 26,
      "buildingBlockType": "FRAGMENT",
      "isRCV": false,
      "properties": {
        "ATTACHMENT_POINTS": "1#LPyrrolidinylideneSubCGammaL:1:SINGLE:8.8728%5.0935%2.2174 "
      },
      "uniquefyingPropertyKeys": [],
      "allowedMutationTypes": [
        "DELETE",
        "EXTEND",
        "CHANGEBRANCH",
        "CHANGELINK",
        "ADDLINK",
        "DELETELINK",
        "DELETECHAIN"
      ],
      "vertexType": "MolecularFragment"
    },
    {
      "lstAPs": [
        {
          "id": 256271,
          "atomPositionNumber": 0,
          "atomPositionNumberInMol": 44,
          "apClass": {
            "rule": "LPyrrolidinylideneSubCAlpha",
            "subClass": 1,
            "bndTyp": "SINGLE"
          },
          "dirVec": {
            "x": 10.5718,
            "y": 9.5818,
            "z": 19.5273
          }
        }
      ],
      "lstSymAPs": [],
      "mol": {
        "atoms": [
          {
            "elSymbol": "C",
            "p3d": {
              "x": 11.7977,
              "y": 8.6986,
              "z": 19.2649
            }
          },
          {
            "elSymbol": "H",
            "p3d": {
              "x": 11.6263,
              "y": 8.0849,
              "z": 18.3966
            }
          },
          {
            "elSymbol": "H",
            "p3d": {
              "x": 11.9867,
              "y": 8.0758,
              "z": 20.122
            }
          },
          {
            "elSymbol": "H",
            "p3d": {
              "x": 12.6717,
              "y": 9.3283,
              "z": 19.0876
            }
          }
        ],
        "bonds": [
          {
            "atomIds": [
              1,
              0
            ],
            "bo": "SINGLE"
          },
          {
            "atomIds": [
              2,
              0
            ],
            "bo": "SINGLE"
          },
          {
            "atomIds": [
              3,
              0
            ],
            "bo": "SINGLE"
          }
        ]
      },
      "vertexId": 196051,
      "buildingBlockId": 27,
      "buildingBlockType": "FRAGMENT",
      "isRCV": false,
      "properties": {
        "ATTACHMENT_POINTS": "1#LPyrrolidinylideneSubCAlpha:1:SINGLE:10.5718%9.5818%19.5273 "
      },
      "uniquefyingPropertyKeys": [],
      "allowedMutationTypes": [
        "DELETE",
        "EXTEND",
        "CHANGEBRANCH",
        "CHANGELINK",
        "ADDLINK",
        "DELETELINK",
        "DELETECHAIN"
      ],
      "vertexType": "MolecularFragment"
    },
    {
      "lstAPs": [
        {
          "id": 256272,
          "atomPositionNumber": 0,
          "atomPositionNumberInMol": 48,
          "apClass": {
            "rule": "LPyrrolidinylideneSubCAlpha",
            "subClass": 1,
            "bndTyp": "SINGLE"
          },
          "dirVec": {
            "x": 10.5718,
            "y": 9.5818,
            "z": 19.5273
          }
        }
      ],
      "lstSymAPs": [],
      "mol": {
        "atoms": [
          {
            "elSymbol": "C",
            "p3d": {
              "x": 11.7977,
              "y": 8.6986,
              "z": 19.2649
            }
          },
          {
            "elSymbol": "H",
            "p3d": {
              "x": 11.6263,
              "y": 8.0849,
              "z": 18.3966
            }
          },
          {
            "elSymbol": "H",
            "p3d": {
              "x": 11.9867,
              "y": 8.0758,
              "z": 20.122
            }
          },
          {
            "elSymbol": "H",
            "p3d": {
              "x": 12.6717,
              "y": 9.3283,
              "z": 19.0876
            }
          }
        ],
        "bonds": [
          {
            "atomIds": [
              1,
              0
            ],
            "bo": "SINGLE"
          },
          {
            "atomIds": [
              2,
              0
            ],
            "bo": "SINGLE"
          },
          {
            "atomIds": [
              3,
              0
            ],
            "bo": "SINGLE"
          }
        ]
      },
      "vertexId": 194620,
      "buildingBlockId": 27,
      "buildingBlockType": "FRAGMENT",
      "isRCV": false,
      "properties": {
        "ATTACHMENT_POINTS": "1#LPyrrolidinylideneSubCAlpha:1:SINGLE:10.5718%9.5818%19.5273 "
      },
      "uniquefyingPropertyKeys": [],
      "allowedMutationTypes": [
        "DELETE",
        "EXTEND",
        "CHANGEBRANCH",
        "CHANGELINK",
        "ADDLINK",
        "DELETELINK",
        "DELETECHAIN"
      ],
      "vertexType": "MolecularFragment"
    }
  ],
  "gEdges": [
    {
      "srcAPID": 256209,
      "trgAPID": 256212,
      "bondType": "SINGLE"
    },
    {
      "srcAPID": 256211,
      "trgAPID": 256214,
      "bondType": "SINGLE"
    },
    {
      "srcAPID": 256210,
      "trgAPID": 256219,
      "bondType": "SINGLE"
    },
    {
      "srcAPID": 256213,
      "trgAPID": 256268,
      "bondType": "SINGLE"
    },
    {
      "srcAPID": 256216,
      "trgAPID": 256269,
      "bondType": "SINGLE"
    },
    {
      "srcAPID": 256215,
      "trgAPID": 256270,
      "bondType": "SINGLE"
    },
    {
      "srcAPID": 256218,
      "trgAPID": 256271,
      "bondType": "SINGLE"
    },
    {
      "srcAPID": 256217,
      "trgAPID": 256272,
      "bondType": "SINGLE"
    }
  ],
  "gRings": [],
  "symVertices": [
    {
      "symIds": [
        196051,
        194620
      ]
    }
  ]
}

> <SMILES>
[Pt](C#O)(C#N)([C]1N(C(C(C1(C([H])([H])[H])C=2C([H])=C([H])C([H])=C([H])C2[H])([H])[H])(C([H])([H])[H])C([H])([H])[H])C=3C(=C(C(=C(C3C([H])([H])[H])[H])[H])[H])[H])C#N

$$$$
