M00001521
  CDK     04222209113D

 62 64  0  0  0  0  0  0  0  0999 V2000
   -2.3990    0.0123    0.2174 Pt  0  0  0  0  0  0  0  0  0  0  0  0
   -4.2862   -0.1849    0.3959 C   0  0  0  0  0  0  0  0  0  0  0  0
   -5.4151   -0.3733    0.4795 O   0  0  0  0  0  0  0  0  0  0  0  0
   -2.0264    1.8797    1.0732 O   0  0  0  0  0  0  0  0  0  0  0  0
   -3.1809    2.5822    1.4497 C   0  0  0  0  0  0  0  0  0  0  0  0
   -2.8371    3.5300    1.8881 H   0  0  0  0  0  0  0  0  0  0  0  0
   -3.7395    2.0087    2.2002 H   0  0  0  0  0  0  0  0  0  0  0  0
   -3.8009    2.7831    0.5667 H   0  0  0  0  0  0  0  0  0  0  0  0
    0.3468    0.4442   -1.0868 N   0  0  0  0  0  0  0  0  0  0  0  0
   -0.3874   -0.0162   -0.0306 C   0  0  1  0  0  0  0  0  0  0  0  0
    0.4551   -0.5208    0.9286 N   0  0  0  0  0  0  0  0  0  0  0  0
    1.9083   -0.3646    0.5599 C   0  0  1  0  0  0  0  0  0  0  0  0
    1.8313    0.2481   -0.8840 C   0  0  1  0  0  0  0  0  0  0  0  0
    2.3849   -1.3823    0.5463 H   0  0  0  0  0  0  0  0  0  0  0  0
    2.3245    1.2511   -0.9283 H   0  0  0  0  0  0  0  0  0  0  0  0
    3.1300   -0.1744    2.7849 C   0  0  0  0  0  0  0  0  0  0  0  0
    2.6530    0.5582    1.5366 C   0  0  0  0  0  0  0  0  0  0  0  0
    2.2902   -0.6053    3.3488 H   0  0  0  0  0  0  0  0  0  0  0  0
    3.8218   -0.9901    2.5490 H   0  0  0  0  0  0  0  0  0  0  0  0
    3.6513    0.5097    3.4663 H   0  0  0  0  0  0  0  0  0  0  0  0
    1.9987    1.4080    1.8289 H   0  0  0  0  0  0  0  0  0  0  0  0
    3.5237    1.0119    1.0206 H   0  0  0  0  0  0  0  0  0  0  0  0
    3.9501   -0.7676   -1.8176 C   0  0  0  0  0  0  0  0  0  0  0  0
    2.4344   -0.6759   -1.9510 C   0  0  0  0  0  0  0  0  0  0  0  0
    4.4321    0.2088   -1.9499 H   0  0  0  0  0  0  0  0  0  0  0  0
    4.2596   -1.1579   -0.8411 H   0  0  0  0  0  0  0  0  0  0  0  0
    4.3689   -1.4377   -2.5799 H   0  0  0  0  0  0  0  0  0  0  0  0
    2.1747   -0.2937   -2.9617 H   0  0  0  0  0  0  0  0  0  0  0  0
    1.9773   -1.6847   -1.8923 H   0  0  0  0  0  0  0  0  0  0  0  0
   -0.1838    1.0708   -2.2752 C   0  0  0  0  0  0  0  0  0  0  0  0
   -1.1244    2.2507   -4.6161 C   0  0  0  0  0  0  0  0  0  0  0  0
   -0.4597    2.4584   -2.2803 C   0  0  0  0  0  0  0  0  0  0  0  0
   -0.3954    0.2806   -3.4167 C   0  0  0  0  0  0  0  0  0  0  0  0
   -0.8635    0.8761   -4.5881 C   0  0  0  0  0  0  0  0  0  0  0  0
   -0.9295    3.0299   -3.4752 C   0  0  0  0  0  0  0  0  0  0  0  0
   -0.2085   -0.7938   -3.3795 H   0  0  0  0  0  0  0  0  0  0  0  0
   -1.0298    0.2701   -5.4769 H   0  0  0  0  0  0  0  0  0  0  0  0
   -1.1486    4.0970   -3.5060 H   0  0  0  0  0  0  0  0  0  0  0  0
   -1.4877    2.7146   -5.5330 H   0  0  0  0  0  0  0  0  0  0  0  0
   -0.2848    3.2856   -1.0586 C   0  0  0  0  0  0  0  0  0  0  0  0
    0.7382    3.2468   -0.6666 H   0  0  0  0  0  0  0  0  0  0  0  0
   -0.9460    2.9093   -0.2326 H   0  0  0  0  0  0  0  0  0  0  0  0
   -0.5451    4.3394   -1.2053 H   0  0  0  0  0  0  0  0  0  0  0  0
   -0.0127   -1.1162    2.1579 C   0  0  0  0  0  0  0  0  0  0  0  0
   -0.9243   -2.1348    4.5881 C   0  0  0  0  0  0  0  0  0  0  0  0
    0.3653   -2.4236    2.5391 C   0  0  0  0  0  0  0  0  0  0  0  0
   -0.8763   -0.3458    2.9591 C   0  0  0  0  0  0  0  0  0  0  0  0
   -1.3260   -0.8602    4.1749 C   0  0  0  0  0  0  0  0  0  0  0  0
   -0.0937   -2.9077    3.7749 C   0  0  0  0  0  0  0  0  0  0  0  0
   -1.1935    0.6578    2.6249 H   0  0  0  0  0  0  0  0  0  0  0  0
   -1.9911   -0.2661    4.8001 H   0  0  0  0  0  0  0  0  0  0  0  0
    0.1902   -3.9095    4.0955 H   0  0  0  0  0  0  0  0  0  0  0  0
   -1.2701   -2.5313    5.5417 H   0  0  0  0  0  0  0  0  0  0  0  0
    1.1820   -3.3062    1.6557 C   0  0  0  0  0  0  0  0  0  0  0  0
    1.4754   -4.2431    2.1463 H   0  0  0  0  0  0  0  0  0  0  0  0
    2.1059   -2.8142    1.3098 H   0  0  0  0  0  0  0  0  0  0  0  0
    0.6015   -3.5818    0.7573 H   0  0  0  0  0  0  0  0  0  0  0  0
   -2.5733   -2.0742   -0.7213 S   0  0  0  0  0  0  0  0  0  0  0  0
   -3.0809   -1.5699   -2.3893 C   0  0  0  0  0  0  0  0  0  0  0  0
   -2.5504   -2.1770   -3.1297 H   0  0  0  0  0  0  0  0  0  0  0  0
   -2.8474   -0.5132   -2.5701 H   0  0  0  0  0  0  0  0  0  0  0  0
   -4.1563   -1.7252   -2.5220 H   0  0  0  0  0  0  0  0  0  0  0  0
  2  3  3  0  0  0  0
  1  2  1  0  0  0  0
  5  6  1  0  0  0  0
  5  7  1  0  0  0  0
  5  8  1  0  0  0  0
  4  5  1  0  0  0  0
  1  4  1  0  0  0  0
  9 10  1  0  0  0  0
 11 10  1  0  0  0  0
 12 11  1  0  0  0  0
 12 13  1  0  0  0  0
 13  9  1  0  0  0  0
 14 12  1  0  0  0  0
 15 13  1  0  0  0  0
  1 10  1  0  0  0  0
 16 17  1  0  0  0  0
 16 18  1  0  0  0  0
 16 19  1  0  0  0  0
 16 20  1  0  0  0  0
 17 21  1  0  0  0  0
 17 22  1  0  0  0  0
 12 17  1  0  0  0  0
 23 24  1  0  0  0  0
 23 25  1  0  0  0  0
 23 26  1  0  0  0  0
 23 27  1  0  0  0  0
 24 28  1  0  0  0  0
 24 29  1  0  0  0  0
 13 24  1  0  0  0  0
 30 33  1  0  0  0  0
 33 34  2  0  0  0  0
 31 34  1  0  0  0  0
 31 35  2  0  0  0  0
 32 35  1  0  0  0  0
 30 32  2  0  0  0  0
 34 37  1  0  0  0  0
 35 38  1  0  0  0  0
 31 39  1  0  0  0  0
 33 36  1  0  0  0  0
 40 41  1  0  0  0  0
 40 42  1  0  0  0  0
 40 43  1  0  0  0  0
 32 40  1  0  0  0  0
  9 30  1  0  0  0  0
 44 47  1  0  0  0  0
 47 48  2  0  0  0  0
 45 48  1  0  0  0  0
 45 49  2  0  0  0  0
 46 49  1  0  0  0  0
 44 46  2  0  0  0  0
 48 51  1  0  0  0  0
 49 52  1  0  0  0  0
 45 53  1  0  0  0  0
 47 50  1  0  0  0  0
 54 55  1  0  0  0  0
 54 56  1  0  0  0  0
 54 57  1  0  0  0  0
 46 54  1  0  0  0  0
 11 44  1  0  0  0  0
 59 60  1  0  0  0  0
 59 61  1  0  0  0  0
 59 62  1  0  0  0  0
 58 59  1  0  0  0  0
  1 58  1  0  0  0  0
M  END
> <PM6_ENERGY>
-76.188

> <UID>
DRUXISRGCOHACX-PAPRGBABNA-M

> <FITNESS>
1.14756

> <GCODE>
2132

> <GraphENC>
2132 72_1_0,80_65_1,94_16_1,85_64_1,38348_32_1,39289_32_1,38341_37_1,39290_37_1, 72_0_80_0_SINGLE_Xlig:0_Xlig:1,72_2_94_1_SINGLE_scaff:0_MImidazolidinylidene:1,72_1_85_0_SINGLE_Xlig:0_Xlig:1,94_3_38348_0_SINGLE_LImidazolidinylideneSubCL:0_SubRS:1,94_4_39289_0_SINGLE_LImidazolidinylideneSubCL:0_SubRS:1,94_0_38341_0_SINGLE_LImidazolidinylideneSubNL:0_SubArM:1,94_2_39290_0_SINGLE_LImidazolidinylideneSubNL:0_SubArM:1, SymmetricSet [symIds=[38341, 39290]] SymmetricSet [symIds=[38348, 39289]] 

> <GraphJson>
{
  "graphId": 2132,
  "gVertices": [
    {
      "lstAPs": [
        {
          "id": 52835,
          "atomPositionNumber": 0,
          "atomPositionNumberInMol": 0,
          "apClass": {
            "rule": "Xlig",
            "subClass": 0,
            "bndTyp": "SINGLE"
          },
          "dirVec": {
            "x": -2.3339,
            "y": -0.0087,
            "z": 0.8172
          }
        },
        {
          "id": 52836,
          "atomPositionNumber": 0,
          "atomPositionNumberInMol": 0,
          "apClass": {
            "rule": "Xlig",
            "subClass": 0,
            "bndTyp": "SINGLE"
          },
          "dirVec": {
            "x": 2.336,
            "y": -5.0E-4,
            "z": 0.829
          }
        },
        {
          "id": 52837,
          "atomPositionNumber": 0,
          "atomPositionNumberInMol": 0,
          "apClass": {
            "rule": "scaff",
            "subClass": 0,
            "bndTyp": "SINGLE"
          },
          "dirVec": {
            "x": -0.0095,
            "y": 0.0046,
            "z": -1.7113
          }
        }
      ],
      "lstSymAPs": [
        {
          "symIds": [
            0,
            1
          ]
        }
      ],
      "mol": {
        "atoms": [
          {
            "elSymbol": "Pt",
            "p3d": {
              "x": -0.0098,
              "y": 0.0049,
              "z": 0.6289
            }
          },
          {
            "elSymbol": "C",
            "p3d": {
              "x": -6.0E-4,
              "y": 0.0016,
              "z": 2.5609
            }
          },
          {
            "elSymbol": "O",
            "p3d": {
              "x": 0.0025,
              "y": -0.0041,
              "z": 3.6974
            }
          },
          {
            "elSymbol": "Du",
            "p3d": {
              "x": -0.007,
              "y": 1.0013,
              "z": 0.6372
            }
          },
          {
            "elSymbol": "Du",
            "p3d": {
              "x": -0.0014,
              "y": 0.9902,
              "z": 2.5698
            }
          }
        ],
        "bonds": [
          {
            "atomIds": [
              1,
              2
            ],
            "bo": "TRIPLE"
          },
          {
            "atomIds": [
              0,
              1
            ],
            "bo": "SINGLE"
          },
          {
            "atomIds": [
              3,
              0
            ],
            "bo": "SINGLE"
          },
          {
            "atomIds": [
              4,
              1
            ],
            "bo": "SINGLE"
          }
        ]
      },
      "vertexId": 72,
      "buildingBlockId": 0,
      "buildingBlockType": "SCAFFOLD",
      "isRCV": false,
      "properties": {
        "ATTACHMENT_POINTS": "1#Xlig:0:SINGLE:-2.3339%-0.0087%0.8172,Xlig:0:SINGLE:2.3360%-0.0005%0.8290,scaff:0:SINGLE:-0.0095%0.0046%-1.7113 "
      },
      "uniquefyingPropertyKeys": [],
      "allowedMutationTypes": [
        "DELETE",
        "EXTEND",
        "CHANGEBRANCH",
        "CHANGELINK",
        "ADDLINK",
        "DELETELINK",
        "DELETECHAIN"
      ],
      "vertexType": "MolecularFragment"
    },
    {
      "lstAPs": [
        {
          "id": 52838,
          "atomPositionNumber": 0,
          "atomPositionNumberInMol": 5,
          "apClass": {
            "rule": "Xlig",
            "subClass": 1,
            "bndTyp": "SINGLE"
          },
          "dirVec": {
            "x": -0.1753,
            "y": 0.0948,
            "z": -0.4464
          }
        }
      ],
      "lstSymAPs": [],
      "mol": {
        "atoms": [
          {
            "elSymbol": "O",
            "p3d": {
              "x": -0.3534,
              "y": 2.1044,
              "z": -0.7339
            }
          },
          {
            "elSymbol": "C",
            "p3d": {
              "x": -0.5345,
              "y": 2.7646,
              "z": 0.4801
            }
          },
          {
            "elSymbol": "H",
            "p3d": {
              "x": -0.3728,
              "y": 3.8337,
              "z": 0.2724
            }
          },
          {
            "elSymbol": "H",
            "p3d": {
              "x": 0.1816,
              "y": 2.4161,
              "z": 1.2384
            }
          },
          {
            "elSymbol": "H",
            "p3d": {
              "x": -1.553,
              "y": 2.6149,
              "z": 0.8489
            }
          }
        ],
        "bonds": [
          {
            "atomIds": [
              1,
              2
            ],
            "bo": "SINGLE"
          },
          {
            "atomIds": [
              1,
              3
            ],
            "bo": "SINGLE"
          },
          {
            "atomIds": [
              1,
              4
            ],
            "bo": "SINGLE"
          },
          {
            "atomIds": [
              0,
              1
            ],
            "bo": "SINGLE"
          }
        ]
      },
      "vertexId": 80,
      "buildingBlockId": 64,
      "buildingBlockType": "FRAGMENT",
      "isRCV": false,
      "properties": {
        "ATTACHMENT_POINTS": "1#Xlig:1:SINGLE:-0.1753%0.0948%-0.4464 "
      },
      "uniquefyingPropertyKeys": [],
      "allowedMutationTypes": [
        "DELETE",
        "EXTEND",
        "CHANGEBRANCH",
        "CHANGELINK",
        "ADDLINK",
        "DELETELINK",
        "DELETECHAIN"
      ],
      "vertexType": "MolecularFragment"
    },
    {
      "lstAPs": [
        {
          "id": 52839,
          "atomPositionNumber": 0,
          "atomPositionNumberInMol": 10,
          "apClass": {
            "rule": "LImidazolidinylideneSubNL",
            "subClass": 0,
            "bndTyp": "SINGLE"
          },
          "dirVec": {
            "x": 1.1053,
            "y": -4.2806,
            "z": -0.0746
          }
        },
        {
          "id": 52840,
          "atomPositionNumber": 1,
          "atomPositionNumberInMol": 11,
          "apClass": {
            "rule": "MImidazolidinylidene",
            "subClass": 1,
            "bndTyp": "SINGLE"
          },
          "dirVec": {
            "x": 0.0066,
            "y": -1.1634,
            "z": -0.2139
          }
        },
        {
          "id": 52841,
          "atomPositionNumber": 2,
          "atomPositionNumberInMol": 12,
          "apClass": {
            "rule": "LImidazolidinylideneSubNL",
            "subClass": 0,
            "bndTyp": "SINGLE"
          },
          "dirVec": {
            "x": -0.4116,
            "y": -1.1759,
            "z": -3.5324
          }
        },
        {
          "id": 52842,
          "atomPositionNumber": 3,
          "atomPositionNumberInMol": 13,
          "apClass": {
            "rule": "LImidazolidinylideneSubCL",
            "subClass": 0,
            "bndTyp": "SINGLE"
          },
          "dirVec": {
            "x": -1.1896,
            "y": -4.3794,
            "z": -4.1809
          }
        },
        {
          "id": 52843,
          "atomPositionNumber": 4,
          "atomPositionNumberInMol": 14,
          "apClass": {
            "rule": "LImidazolidinylideneSubCL",
            "subClass": 0,
            "bndTyp": "SINGLE"
          },
          "dirVec": {
            "x": 2.4239,
            "y": -4.9262,
            "z": -3.0604
          }
        }
      ],
      "lstSymAPs": [
        {
          "symIds": [
            0,
            2
          ]
        },
        {
          "symIds": [
            3,
            4
          ]
        }
      ],
      "mol": {
        "atoms": [
          {
            "elSymbol": "N",
            "p3d": {
              "x": 0.8214,
              "y": -3.7977,
              "z": -1.429
            }
          },
          {
            "elSymbol": "C",
            "p3d": {
              "x": 0.3058,
              "y": -2.5822,
              "z": -1.663
            }
          },
          {
            "elSymbol": "N",
            "p3d": {
              "x": -0.0048,
              "y": -2.4602,
              "z": -2.9405
            }
          },
          {
            "elSymbol": "C",
            "p3d": {
              "x": 0.1672,
              "y": -3.7242,
              "z": -3.6717
            }
          },
          {
            "elSymbol": "C",
            "p3d": {
              "x": 0.9512,
              "y": -4.5908,
              "z": -2.682
            }
          },
          {
            "elSymbol": "H",
            "p3d": {
              "x": 0.6828,
              "y": -3.6212,
              "z": -4.6265
            }
          },
          {
            "elSymbol": "H",
            "p3d": {
              "x": 0.5478,
              "y": -5.6128,
              "z": -2.6141
            }
          }
        ],
        "bonds": [
          {
            "atomIds": [
              0,
              1
            ],
            "bo": "SINGLE"
          },
          {
            "atomIds": [
              2,
              1
            ],
            "bo": "SINGLE"
          },
          {
            "atomIds": [
              3,
              2
            ],
            "bo": "SINGLE"
          },
          {
            "atomIds": [
              3,
              4
            ],
            "bo": "SINGLE"
          },
          {
            "atomIds": [
              4,
              0
            ],
            "bo": "SINGLE"
          },
          {
            "atomIds": [
              5,
              3
            ],
            "bo": "SINGLE"
          },
          {
            "atomIds": [
              6,
              4
            ],
            "bo": "SINGLE"
          }
        ]
      },
      "vertexId": 94,
      "buildingBlockId": 15,
      "buildingBlockType": "FRAGMENT",
      "isRCV": false,
      "properties": {
        "ATTACHMENT_POINTS": "1#LImidazolidinylideneSubNL:0:SINGLE:1.1053%-4.2806%-0.0746 2#MImidazolidinylidene:1:SINGLE:0.0066%-1.1634%-0.2139 3#LImidazolidinylideneSubNL:0:SINGLE:-0.4116%-1.1759%-3.5324 4#LImidazolidinylideneSubCL:0:SINGLE:-1.1896%-4.3794%-4.1809 5#LImidazolidinylideneSubCL:0:SINGLE:2.4239%-4.9262%-3.0604 "
      },
      "uniquefyingPropertyKeys": [],
      "allowedMutationTypes": [
        "DELETE",
        "EXTEND",
        "CHANGEBRANCH",
        "CHANGELINK",
        "ADDLINK",
        "DELETELINK",
        "DELETECHAIN"
      ],
      "vertexType": "MolecularFragment"
    },
    {
      "lstAPs": [
        {
          "id": 52844,
          "atomPositionNumber": 0,
          "atomPositionNumberInMol": 59,
          "apClass": {
            "rule": "Xlig",
            "subClass": 1,
            "bndTyp": "SINGLE"
          },
          "dirVec": {
            "x": -0.102,
            "y": 0.0185,
            "z": -1.0265
          }
        }
      ],
      "lstSymAPs": [],
      "mol": {
        "atoms": [
          {
            "elSymbol": "S",
            "p3d": {
              "x": -0.3267,
              "y": 2.3403,
              "z": -1.0022
            }
          },
          {
            "elSymbol": "C",
            "p3d": {
              "x": -0.626,
              "y": 2.4866,
              "z": 0.7805
            }
          },
          {
            "elSymbol": "H",
            "p3d": {
              "x": 0.1766,
              "y": 3.089,
              "z": 1.2414
            }
          },
          {
            "elSymbol": "H",
            "p3d": {
              "x": -0.651,
              "y": 1.5065,
              "z": 1.2643
            }
          },
          {
            "elSymbol": "H",
            "p3d": {
              "x": -1.5658,
              "y": 2.981,
              "z": 0.9515
            }
          }
        ],
        "bonds": [
          {
            "atomIds": [
              1,
              2
            ],
            "bo": "SINGLE"
          },
          {
            "atomIds": [
              1,
              3
            ],
            "bo": "SINGLE"
          },
          {
            "atomIds": [
              1,
              4
            ],
            "bo": "SINGLE"
          },
          {
            "atomIds": [
              0,
              1
            ],
            "bo": "SINGLE"
          }
        ]
      },
      "vertexId": 85,
      "buildingBlockId": 63,
      "buildingBlockType": "FRAGMENT",
      "isRCV": false,
      "properties": {
        "ATTACHMENT_POINTS": "1#Xlig:1:SINGLE:-0.1020%0.0185%-1.0265 "
      },
      "uniquefyingPropertyKeys": [],
      "allowedMutationTypes": [
        "DELETE",
        "EXTEND",
        "CHANGEBRANCH",
        "CHANGELINK",
        "ADDLINK",
        "DELETELINK",
        "DELETECHAIN"
      ],
      "vertexType": "MolecularFragment"
    },
    {
      "lstAPs": [
        {
          "id": 52887,
          "atomPositionNumber": 1,
          "atomPositionNumberInMol": 18,
          "apClass": {
            "rule": "SubRS",
            "subClass": 1,
            "bndTyp": "SINGLE"
          },
          "dirVec": {
            "x": 0.2985,
            "y": 0.384,
            "z": -0.6258
          }
        }
      ],
      "lstSymAPs": [],
      "mol": {
        "atoms": [
          {
            "elSymbol": "C",
            "p3d": {
              "x": -1.0244,
              "y": -0.2225,
              "z": 1.3991
            }
          },
          {
            "elSymbol": "C",
            "p3d": {
              "x": 0.3973,
              "y": -0.042,
              "z": 0.8195
            }
          },
          {
            "elSymbol": "H",
            "p3d": {
              "x": -1.5635,
              "y": -0.9908,
              "z": 0.8263
            }
          },
          {
            "elSymbol": "H",
            "p3d": {
              "x": -0.941,
              "y": -0.535,
              "z": 2.446
            }
          },
          {
            "elSymbol": "H",
            "p3d": {
              "x": -1.5586,
              "y": 0.7335,
              "z": 1.3382
            }
          },
          {
            "elSymbol": "H",
            "p3d": {
              "x": 0.9335,
              "y": 0.7221,
              "z": 1.4011
            }
          },
          {
            "elSymbol": "H",
            "p3d": {
              "x": 0.927,
              "y": -1.0102,
              "z": 0.9001
            }
          }
        ],
        "bonds": [
          {
            "atomIds": [
              0,
              1
            ],
            "bo": "SINGLE"
          },
          {
            "atomIds": [
              0,
              2
            ],
            "bo": "SINGLE"
          },
          {
            "atomIds": [
              0,
              3
            ],
            "bo": "SINGLE"
          },
          {
            "atomIds": [
              0,
              4
            ],
            "bo": "SINGLE"
          },
          {
            "atomIds": [
              1,
              5
            ],
            "bo": "SINGLE"
          },
          {
            "atomIds": [
              1,
              6
            ],
            "bo": "SINGLE"
          }
        ]
      },
      "vertexId": 38348,
      "buildingBlockId": 31,
      "buildingBlockType": "FRAGMENT",
      "isRCV": false,
      "properties": {
        "ATTACHMENT_POINTS": "2#SubRS:1:SINGLE:0.2985%0.3840%-0.6258 "
      },
      "uniquefyingPropertyKeys": [],
      "allowedMutationTypes": [
        "DELETE",
        "EXTEND",
        "CHANGEBRANCH",
        "CHANGELINK",
        "ADDLINK",
        "DELETELINK",
        "DELETECHAIN"
      ],
      "vertexType": "MolecularFragment"
    },
    {
      "lstAPs": [
        {
          "id": 52888,
          "atomPositionNumber": 1,
          "atomPositionNumberInMol": 25,
          "apClass": {
            "rule": "SubRS",
            "subClass": 1,
            "bndTyp": "SINGLE"
          },
          "dirVec": {
            "x": 0.2985,
            "y": 0.384,
            "z": -0.6258
          }
        }
      ],
      "lstSymAPs": [],
      "mol": {
        "atoms": [
          {
            "elSymbol": "C",
            "p3d": {
              "x": -1.0244,
              "y": -0.2225,
              "z": 1.3991
            }
          },
          {
            "elSymbol": "C",
            "p3d": {
              "x": 0.3973,
              "y": -0.042,
              "z": 0.8195
            }
          },
          {
            "elSymbol": "H",
            "p3d": {
              "x": -1.5635,
              "y": -0.9908,
              "z": 0.8263
            }
          },
          {
            "elSymbol": "H",
            "p3d": {
              "x": -0.941,
              "y": -0.535,
              "z": 2.446
            }
          },
          {
            "elSymbol": "H",
            "p3d": {
              "x": -1.5586,
              "y": 0.7335,
              "z": 1.3382
            }
          },
          {
            "elSymbol": "H",
            "p3d": {
              "x": 0.9335,
              "y": 0.7221,
              "z": 1.4011
            }
          },
          {
            "elSymbol": "H",
            "p3d": {
              "x": 0.927,
              "y": -1.0102,
              "z": 0.9001
            }
          }
        ],
        "bonds": [
          {
            "atomIds": [
              0,
              1
            ],
            "bo": "SINGLE"
          },
          {
            "atomIds": [
              0,
              2
            ],
            "bo": "SINGLE"
          },
          {
            "atomIds": [
              0,
              3
            ],
            "bo": "SINGLE"
          },
          {
            "atomIds": [
              0,
              4
            ],
            "bo": "SINGLE"
          },
          {
            "atomIds": [
              1,
              5
            ],
            "bo": "SINGLE"
          },
          {
            "atomIds": [
              1,
              6
            ],
            "bo": "SINGLE"
          }
        ]
      },
      "vertexId": 39289,
      "buildingBlockId": 31,
      "buildingBlockType": "FRAGMENT",
      "isRCV": false,
      "properties": {
        "ATTACHMENT_POINTS": "2#SubRS:1:SINGLE:0.2985%0.3840%-0.6258 "
      },
      "uniquefyingPropertyKeys": [],
      "allowedMutationTypes": [
        "DELETE",
        "EXTEND",
        "CHANGEBRANCH",
        "CHANGELINK",
        "ADDLINK",
        "DELETELINK",
        "DELETECHAIN"
      ],
      "vertexType": "MolecularFragment"
    },
    {
      "lstAPs": [
        {
          "id": 52889,
          "atomPositionNumber": 0,
          "atomPositionNumberInMol": 31,
          "apClass": {
            "rule": "SubArM",
            "subClass": 1,
            "bndTyp": "SINGLE"
          },
          "dirVec": {
            "x": 0.3016,
            "y": 0.3831,
            "z": -0.6449
          }
        }
      ],
      "lstSymAPs": [],
      "mol": {
        "atoms": [
          {
            "elSymbol": "C",
            "p3d": {
              "x": 1.7096,
              "y": 0.5525,
              "z": -1.2136
            }
          },
          {
            "elSymbol": "C",
            "p3d": {
              "x": 4.2502,
              "y": 0.8767,
              "z": -2.2636
            }
          },
          {
            "elSymbol": "C",
            "p3d": {
              "x": 2.3368,
              "y": 1.7899,
              "z": -1.1199
            }
          },
          {
            "elSymbol": "C",
            "p3d": {
              "x": 2.344,
              "y": -0.5151,
              "z": -1.819
            }
          },
          {
            "elSymbol": "C",
            "p3d": {
              "x": 3.6162,
              "y": -0.3625,
              "z": -2.3439
            }
          },
          {
            "elSymbol": "C",
            "p3d": {
              "x": 3.6039,
              "y": 1.9353,
              "z": -1.6584
            }
          },
          {
            "elSymbol": "H",
            "p3d": {
              "x": 1.8411,
              "y": -1.493,
              "z": -1.8837
            }
          },
          {
            "elSymbol": "H",
            "p3d": {
              "x": 4.113,
              "y": -1.2006,
              "z": -2.8069
            }
          },
          {
            "elSymbol": "H",
            "p3d": {
              "x": 4.1107,
              "y": 2.9115,
              "z": -1.5913
            }
          },
          {
            "elSymbol": "H",
            "p3d": {
              "x": 5.2516,
              "y": 0.992,
              "z": -2.67
            }
          },
          {
            "elSymbol": "C",
            "p3d": {
              "x": 1.6301,
              "y": 2.9729,
              "z": -0.4606
            }
          },
          {
            "elSymbol": "H",
            "p3d": {
              "x": 2.3743,
              "y": 3.6775,
              "z": -0.0646
            }
          },
          {
            "elSymbol": "H",
            "p3d": {
              "x": 1.0016,
              "y": 2.6144,
              "z": 0.3512
            }
          },
          {
            "elSymbol": "H",
            "p3d": {
              "x": 1.0097,
              "y": 3.4845,
              "z": -1.1971
            }
          }
        ],
        "bonds": [
          {
            "atomIds": [
              0,
              3
            ],
            "bo": "SINGLE"
          },
          {
            "atomIds": [
              3,
              4
            ],
            "bo": "DOUBLE"
          },
          {
            "atomIds": [
              1,
              4
            ],
            "bo": "SINGLE"
          },
          {
            "atomIds": [
              1,
              5
            ],
            "bo": "DOUBLE"
          },
          {
            "atomIds": [
              2,
              5
            ],
            "bo": "SINGLE"
          },
          {
            "atomIds": [
              0,
              2
            ],
            "bo": "DOUBLE"
          },
          {
            "atomIds": [
              4,
              7
            ],
            "bo": "SINGLE"
          },
          {
            "atomIds": [
              5,
              8
            ],
            "bo": "SINGLE"
          },
          {
            "atomIds": [
              1,
              9
            ],
            "bo": "SINGLE"
          },
          {
            "atomIds": [
              3,
              6
            ],
            "bo": "SINGLE"
          },
          {
            "atomIds": [
              10,
              11
            ],
            "bo": "SINGLE"
          },
          {
            "atomIds": [
              10,
              12
            ],
            "bo": "SINGLE"
          },
          {
            "atomIds": [
              10,
              13
            ],
            "bo": "SINGLE"
          },
          {
            "atomIds": [
              2,
              10
            ],
            "bo": "SINGLE"
          }
        ]
      },
      "vertexId": 38341,
      "buildingBlockId": 36,
      "buildingBlockType": "FRAGMENT",
      "isRCV": false,
      "properties": {
        "ATTACHMENT_POINTS": "1#SubArM:1:SINGLE:0.3016%0.3831%-0.6449 "
      },
      "uniquefyingPropertyKeys": [],
      "allowedMutationTypes": [
        "DELETE",
        "EXTEND",
        "CHANGEBRANCH",
        "CHANGELINK",
        "ADDLINK",
        "DELETELINK",
        "DELETECHAIN"
      ],
      "vertexType": "MolecularFragment"
    },
    {
      "lstAPs": [
        {
          "id": 52890,
          "atomPositionNumber": 0,
          "atomPositionNumberInMol": 45,
          "apClass": {
            "rule": "SubArM",
            "subClass": 1,
            "bndTyp": "SINGLE"
          },
          "dirVec": {
            "x": 0.3016,
            "y": 0.3831,
            "z": -0.6449
          }
        }
      ],
      "lstSymAPs": [],
      "mol": {
        "atoms": [
          {
            "elSymbol": "C",
            "p3d": {
              "x": 1.7096,
              "y": 0.5525,
              "z": -1.2136
            }
          },
          {
            "elSymbol": "C",
            "p3d": {
              "x": 4.2502,
              "y": 0.8767,
              "z": -2.2636
            }
          },
          {
            "elSymbol": "C",
            "p3d": {
              "x": 2.3368,
              "y": 1.7899,
              "z": -1.1199
            }
          },
          {
            "elSymbol": "C",
            "p3d": {
              "x": 2.344,
              "y": -0.5151,
              "z": -1.819
            }
          },
          {
            "elSymbol": "C",
            "p3d": {
              "x": 3.6162,
              "y": -0.3625,
              "z": -2.3439
            }
          },
          {
            "elSymbol": "C",
            "p3d": {
              "x": 3.6039,
              "y": 1.9353,
              "z": -1.6584
            }
          },
          {
            "elSymbol": "H",
            "p3d": {
              "x": 1.8411,
              "y": -1.493,
              "z": -1.8837
            }
          },
          {
            "elSymbol": "H",
            "p3d": {
              "x": 4.113,
              "y": -1.2006,
              "z": -2.8069
            }
          },
          {
            "elSymbol": "H",
            "p3d": {
              "x": 4.1107,
              "y": 2.9115,
              "z": -1.5913
            }
          },
          {
            "elSymbol": "H",
            "p3d": {
              "x": 5.2516,
              "y": 0.992,
              "z": -2.67
            }
          },
          {
            "elSymbol": "C",
            "p3d": {
              "x": 1.6301,
              "y": 2.9729,
              "z": -0.4606
            }
          },
          {
            "elSymbol": "H",
            "p3d": {
              "x": 2.3743,
              "y": 3.6775,
              "z": -0.0646
            }
          },
          {
            "elSymbol": "H",
            "p3d": {
              "x": 1.0016,
              "y": 2.6144,
              "z": 0.3512
            }
          },
          {
            "elSymbol": "H",
            "p3d": {
              "x": 1.0097,
              "y": 3.4845,
              "z": -1.1971
            }
          }
        ],
        "bonds": [
          {
            "atomIds": [
              0,
              3
            ],
            "bo": "SINGLE"
          },
          {
            "atomIds": [
              3,
              4
            ],
            "bo": "DOUBLE"
          },
          {
            "atomIds": [
              1,
              4
            ],
            "bo": "SINGLE"
          },
          {
            "atomIds": [
              1,
              5
            ],
            "bo": "DOUBLE"
          },
          {
            "atomIds": [
              2,
              5
            ],
            "bo": "SINGLE"
          },
          {
            "atomIds": [
              0,
              2
            ],
            "bo": "DOUBLE"
          },
          {
            "atomIds": [
              4,
              7
            ],
            "bo": "SINGLE"
          },
          {
            "atomIds": [
              5,
              8
            ],
            "bo": "SINGLE"
          },
          {
            "atomIds": [
              1,
              9
            ],
            "bo": "SINGLE"
          },
          {
            "atomIds": [
              3,
              6
            ],
            "bo": "SINGLE"
          },
          {
            "atomIds": [
              10,
              11
            ],
            "bo": "SINGLE"
          },
          {
            "atomIds": [
              10,
              12
            ],
            "bo": "SINGLE"
          },
          {
            "atomIds": [
              10,
              13
            ],
            "bo": "SINGLE"
          },
          {
            "atomIds": [
              2,
              10
            ],
            "bo": "SINGLE"
          }
        ]
      },
      "vertexId": 39290,
      "buildingBlockId": 36,
      "buildingBlockType": "FRAGMENT",
      "isRCV": false,
      "properties": {
        "ATTACHMENT_POINTS": "1#SubArM:1:SINGLE:0.3016%0.3831%-0.6449 "
      },
      "uniquefyingPropertyKeys": [],
      "allowedMutationTypes": [
        "DELETE",
        "EXTEND",
        "CHANGEBRANCH",
        "CHANGELINK",
        "ADDLINK",
        "DELETELINK",
        "DELETECHAIN"
      ],
      "vertexType": "MolecularFragment"
    }
  ],
  "gEdges": [
    {
      "srcAPID": 52835,
      "trgAPID": 52838,
      "bondType": "SINGLE"
    },
    {
      "srcAPID": 52837,
      "trgAPID": 52840,
      "bondType": "SINGLE"
    },
    {
      "srcAPID": 52836,
      "trgAPID": 52844,
      "bondType": "SINGLE"
    },
    {
      "srcAPID": 52842,
      "trgAPID": 52887,
      "bondType": "SINGLE"
    },
    {
      "srcAPID": 52843,
      "trgAPID": 52888,
      "bondType": "SINGLE"
    },
    {
      "srcAPID": 52839,
      "trgAPID": 52889,
      "bondType": "SINGLE"
    },
    {
      "srcAPID": 52841,
      "trgAPID": 52890,
      "bondType": "SINGLE"
    }
  ],
  "gRings": [],
  "symVertices": [
    {
      "symIds": [
        38341,
        39290
      ]
    },
    {
      "symIds": [
        38348,
        39289
      ]
    }
  ]
}

> <SMILES>
[Pt](C#O)(OC([H])([H])[H])([C]1N(C(C(N1C=2C(=C(C(=C(C2C([H])([H])[H])[H])[H])[H])[H])([H])C(C([H])([H])[H])([H])[H])([H])C(C([H])([H])[H])([H])[H])C=3C(=C(C(=C(C3C([H])([H])[H])[H])[H])[H])[H])SC([H])([H])[H]

$$$$
