M00003915
  CDK     04222210063D

 59 61  0  0  0  0  0  0  0  0999 V2000
    2.1499    0.1253    0.1319 Pt  0  0  0  0  0  0  0  0  0  0  0  0
    4.0497    0.2333    0.2590 C   0  0  0  0  0  0  0  0  0  0  0  0
    5.1899    0.3383    0.3311 O   0  0  0  0  0  0  0  0  0  0  0  0
    1.8993   -1.8038    0.8462 O   0  0  0  0  0  0  0  0  0  0  0  0
    3.0392   -2.6184    0.7613 C   0  0  0  0  0  0  0  0  0  0  0  0
    2.7258   -3.6186    1.0938 H   0  0  0  0  0  0  0  0  0  0  0  0
    3.8213   -2.2367    1.4297 H   0  0  0  0  0  0  0  0  0  0  0  0
    3.3907   -2.6638   -0.2773 H   0  0  0  0  0  0  0  0  0  0  0  0
   -0.6134   -0.4467   -1.0135 N   0  0  0  0  0  0  0  0  0  0  0  0
    0.1235    0.1330   -0.0206 C   0  0  2  0  0  0  0  0  0  0  0  0
   -0.7113    0.7369    0.8790 N   0  0  0  0  0  0  0  0  0  0  0  0
   -2.1683    0.5690    0.5197 C   0  0  1  0  0  0  0  0  0  0  0  0
   -2.1011   -0.2732   -0.8043 C   0  0  1  0  0  0  0  0  0  0  0  0
   -2.6035    1.5837    0.3351 H   0  0  0  0  0  0  0  0  0  0  0  0
   -2.5520   -1.2881   -0.6602 H   0  0  0  0  0  0  0  0  0  0  0  0
   -0.0921   -1.1668   -2.1506 C   0  0  0  0  0  0  0  0  0  0  0  0
    0.7838   -2.6039   -4.3747 C   0  0  0  0  0  0  0  0  0  0  0  0
    0.0130   -2.5773   -2.0712 C   0  0  0  0  0  0  0  0  0  0  0  0
    0.2798   -0.4696   -3.3229 C   0  0  0  0  0  0  0  0  0  0  0  0
    0.7116   -1.2119   -4.4335 C   0  0  0  0  0  0  0  0  0  0  0  0
    0.4447   -3.2832   -3.2033 C   0  0  0  0  0  0  0  0  0  0  0  0
    1.0009   -0.6937   -5.3463 H   0  0  0  0  0  0  0  0  0  0  0  0
    0.5239   -4.3679   -3.1640 H   0  0  0  0  0  0  0  0  0  0  0  0
    1.1161   -3.1655   -5.2485 H   0  0  0  0  0  0  0  0  0  0  0  0
   -0.2902   -3.2971   -0.8040 C   0  0  0  0  0  0  0  0  0  0  0  0
    0.3848   -2.9240    0.0074 H   0  0  0  0  0  0  0  0  0  0  0  0
   -0.1293   -4.3788   -0.8728 H   0  0  0  0  0  0  0  0  0  0  0  0
   -1.3181   -3.1363   -0.4612 H   0  0  0  0  0  0  0  0  0  0  0  0
    0.2604    1.0188   -3.3988 C   0  0  0  0  0  0  0  0  0  0  0  0
    1.1718    1.4412   -2.9352 H   0  0  0  0  0  0  0  0  0  0  0  0
   -0.5933    1.4686   -2.8688 H   0  0  0  0  0  0  0  0  0  0  0  0
    0.2343    1.3925   -4.4307 H   0  0  0  0  0  0  0  0  0  0  0  0
   -2.9437   -0.1371    1.6212 C   0  0  0  0  0  0  0  0  0  0  0  0
   -3.9890   -0.3011    1.3349 H   0  0  0  0  0  0  0  0  0  0  0  0
   -2.5069   -1.1124    1.8804 H   0  0  0  0  0  0  0  0  0  0  0  0
   -2.9471    0.4573    2.5476 H   0  0  0  0  0  0  0  0  0  0  0  0
   -0.2974    1.4600    2.0580 C   0  0  0  0  0  0  0  0  0  0  0  0
    0.4006    2.8489    4.3749 C   0  0  0  0  0  0  0  0  0  0  0  0
   -0.3345    2.8730    2.0571 C   0  0  0  0  0  0  0  0  0  0  0  0
    0.1161    0.7372    3.2045 C   0  0  0  0  0  0  0  0  0  0  0  0
    0.4599    1.4541    4.3597 C   0  0  0  0  0  0  0  0  0  0  0  0
    0.0102    3.5531    3.2363 C   0  0  0  0  0  0  0  0  0  0  0  0
    0.7813    0.9171    5.2505 H   0  0  0  0  0  0  0  0  0  0  0  0
   -0.0155    4.6415    3.2543 H   0  0  0  0  0  0  0  0  0  0  0  0
    0.6683    3.3917    5.2820 H   0  0  0  0  0  0  0  0  0  0  0  0
   -0.7205    3.6643    0.8529 C   0  0  0  0  0  0  0  0  0  0  0  0
   -0.5865    3.1128   -0.0893 H   0  0  0  0  0  0  0  0  0  0  0  0
   -0.0861    4.5614    0.7436 H   0  0  0  0  0  0  0  0  0  0  0  0
   -1.7619    4.0046    0.9091 H   0  0  0  0  0  0  0  0  0  0  0  0
    0.2029   -0.7483    3.1963 C   0  0  0  0  0  0  0  0  0  0  0  0
    1.0013   -1.1028    2.4993 H   0  0  0  0  0  0  0  0  0  0  0  0
   -0.7258   -1.2218    2.8506 H   0  0  0  0  0  0  0  0  0  0  0  0
    0.4440   -1.1720    4.1781 H   0  0  0  0  0  0  0  0  0  0  0  0
   -2.7662    0.4270   -1.9782 C   0  0  0  0  0  0  0  0  0  0  0  0
   -2.2441    1.3572   -2.2576 H   0  0  0  0  0  0  0  0  0  0  0  0
   -2.7623   -0.2100   -2.8756 H   0  0  0  0  0  0  0  0  0  0  0  0
   -3.8110    0.6769   -1.7602 H   0  0  0  0  0  0  0  0  0  0  0  0
    2.1563    1.9830   -0.5329 C   0  0  0  0  0  0  0  0  0  0  0  0
    2.1156    3.0689   -0.9292 N   0  0  0  0  0  0  0  0  0  0  0  0
  2  3  3  0  0  0  0
  1  2  1  0  0  0  0
  5  6  1  0  0  0  0
  5  7  1  0  0  0  0
  5  8  1  0  0  0  0
  4  5  1  0  0  0  0
  1  4  1  0  0  0  0
  9 10  1  0  0  0  0
 11 10  1  0  0  0  0
 12 11  1  0  0  0  0
 12 13  1  0  0  0  0
 13  9  1  0  0  0  0
 14 12  1  0  0  0  0
 15 13  1  0  0  0  0
  1 10  1  0  0  0  0
 16 19  1  0  0  0  0
 19 20  2  0  0  0  0
 17 20  1  0  0  0  0
 17 21  2  0  0  0  0
 18 21  1  0  0  0  0
 16 18  2  0  0  0  0
 20 22  1  0  0  0  0
 21 23  1  0  0  0  0
 17 24  1  0  0  0  0
 25 26  1  0  0  0  0
 25 27  1  0  0  0  0
 25 28  1  0  0  0  0
 18 25  1  0  0  0  0
 29 30  1  0  0  0  0
 29 31  1  0  0  0  0
 29 32  1  0  0  0  0
 19 29  1  0  0  0  0
  9 16  1  0  0  0  0
 33 34  1  0  0  0  0
 33 35  1  0  0  0  0
 33 36  1  0  0  0  0
 12 33  1  0  0  0  0
 37 40  1  0  0  0  0
 40 41  2  0  0  0  0
 38 41  1  0  0  0  0
 38 42  2  0  0  0  0
 39 42  1  0  0  0  0
 37 39  2  0  0  0  0
 41 43  1  0  0  0  0
 42 44  1  0  0  0  0
 38 45  1  0  0  0  0
 46 47  1  0  0  0  0
 46 48  1  0  0  0  0
 46 49  1  0  0  0  0
 39 46  1  0  0  0  0
 50 51  1  0  0  0  0
 50 52  1  0  0  0  0
 50 53  1  0  0  0  0
 40 50  1  0  0  0  0
 11 37  1  0  0  0  0
 54 55  1  0  0  0  0
 54 56  1  0  0  0  0
 54 57  1  0  0  0  0
 13 54  1  0  0  0  0
 58 59  3  0  0  0  0
  1 58  1  0  0  0  0
M  END
> <PM6_ENERGY>
32.283

> <UID>
HJHMQKMRQQLJOS-LDSDHFAWNA-N

> <FITNESS>
1.14729

> <GCODE>
4639

> <GraphENC>
4639 72_1_0,80_65_1,94_16_1,87_66_1,89733_38_1,89737_31_1,90972_38_1,90973_31_1, 72_0_80_0_SINGLE_Xlig:0_Xlig:1,72_2_94_1_SINGLE_scaff:0_MImidazolidinylidene:1,72_1_87_0_SINGLE_Xlig:0_Xlig:1,94_0_89733_0_SINGLE_LImidazolidinylideneSubNL:0_SubArL:1,94_3_89737_0_SINGLE_LImidazolidinylideneSubCL:0_SubRS:1,94_2_90972_0_SINGLE_LImidazolidinylideneSubNL:0_SubArL:1,94_4_90973_0_SINGLE_LImidazolidinylideneSubCL:0_SubRS:1, SymmetricSet [symIds=[89733, 90972]] SymmetricSet [symIds=[89737, 90973]] 

> <GraphJson>
{
  "graphId": 4639,
  "gVertices": [
    {
      "lstAPs": [
        {
          "id": 119874,
          "atomPositionNumber": 0,
          "atomPositionNumberInMol": 0,
          "apClass": {
            "rule": "Xlig",
            "subClass": 0,
            "bndTyp": "SINGLE"
          },
          "dirVec": {
            "x": -2.3339,
            "y": -0.0087,
            "z": 0.8172
          }
        },
        {
          "id": 119875,
          "atomPositionNumber": 0,
          "atomPositionNumberInMol": 0,
          "apClass": {
            "rule": "Xlig",
            "subClass": 0,
            "bndTyp": "SINGLE"
          },
          "dirVec": {
            "x": 2.336,
            "y": -5.0E-4,
            "z": 0.829
          }
        },
        {
          "id": 119876,
          "atomPositionNumber": 0,
          "atomPositionNumberInMol": 0,
          "apClass": {
            "rule": "scaff",
            "subClass": 0,
            "bndTyp": "SINGLE"
          },
          "dirVec": {
            "x": -0.0095,
            "y": 0.0046,
            "z": -1.7113
          }
        }
      ],
      "lstSymAPs": [
        {
          "symIds": [
            0,
            1
          ]
        }
      ],
      "mol": {
        "atoms": [
          {
            "elSymbol": "Pt",
            "p3d": {
              "x": -0.0098,
              "y": 0.0049,
              "z": 0.6289
            }
          },
          {
            "elSymbol": "C",
            "p3d": {
              "x": -6.0E-4,
              "y": 0.0016,
              "z": 2.5609
            }
          },
          {
            "elSymbol": "O",
            "p3d": {
              "x": 0.0025,
              "y": -0.0041,
              "z": 3.6974
            }
          },
          {
            "elSymbol": "Du",
            "p3d": {
              "x": -0.007,
              "y": 1.0013,
              "z": 0.6372
            }
          },
          {
            "elSymbol": "Du",
            "p3d": {
              "x": -0.0014,
              "y": 0.9902,
              "z": 2.5698
            }
          }
        ],
        "bonds": [
          {
            "atomIds": [
              1,
              2
            ],
            "bo": "TRIPLE"
          },
          {
            "atomIds": [
              0,
              1
            ],
            "bo": "SINGLE"
          },
          {
            "atomIds": [
              3,
              0
            ],
            "bo": "SINGLE"
          },
          {
            "atomIds": [
              4,
              1
            ],
            "bo": "SINGLE"
          }
        ]
      },
      "vertexId": 72,
      "buildingBlockId": 0,
      "buildingBlockType": "SCAFFOLD",
      "isRCV": false,
      "properties": {
        "ATTACHMENT_POINTS": "1#Xlig:0:SINGLE:-2.3339%-0.0087%0.8172,Xlig:0:SINGLE:2.3360%-0.0005%0.8290,scaff:0:SINGLE:-0.0095%0.0046%-1.7113 "
      },
      "uniquefyingPropertyKeys": [],
      "allowedMutationTypes": [
        "DELETE",
        "EXTEND",
        "CHANGEBRANCH",
        "CHANGELINK",
        "ADDLINK",
        "DELETELINK",
        "DELETECHAIN"
      ],
      "vertexType": "MolecularFragment"
    },
    {
      "lstAPs": [
        {
          "id": 119877,
          "atomPositionNumber": 0,
          "atomPositionNumberInMol": 5,
          "apClass": {
            "rule": "Xlig",
            "subClass": 1,
            "bndTyp": "SINGLE"
          },
          "dirVec": {
            "x": -0.1753,
            "y": 0.0948,
            "z": -0.4464
          }
        }
      ],
      "lstSymAPs": [],
      "mol": {
        "atoms": [
          {
            "elSymbol": "O",
            "p3d": {
              "x": -0.3534,
              "y": 2.1044,
              "z": -0.7339
            }
          },
          {
            "elSymbol": "C",
            "p3d": {
              "x": -0.5345,
              "y": 2.7646,
              "z": 0.4801
            }
          },
          {
            "elSymbol": "H",
            "p3d": {
              "x": -0.3728,
              "y": 3.8337,
              "z": 0.2724
            }
          },
          {
            "elSymbol": "H",
            "p3d": {
              "x": 0.1816,
              "y": 2.4161,
              "z": 1.2384
            }
          },
          {
            "elSymbol": "H",
            "p3d": {
              "x": -1.553,
              "y": 2.6149,
              "z": 0.8489
            }
          }
        ],
        "bonds": [
          {
            "atomIds": [
              1,
              2
            ],
            "bo": "SINGLE"
          },
          {
            "atomIds": [
              1,
              3
            ],
            "bo": "SINGLE"
          },
          {
            "atomIds": [
              1,
              4
            ],
            "bo": "SINGLE"
          },
          {
            "atomIds": [
              0,
              1
            ],
            "bo": "SINGLE"
          }
        ]
      },
      "vertexId": 80,
      "buildingBlockId": 64,
      "buildingBlockType": "FRAGMENT",
      "isRCV": false,
      "properties": {
        "ATTACHMENT_POINTS": "1#Xlig:1:SINGLE:-0.1753%0.0948%-0.4464 "
      },
      "uniquefyingPropertyKeys": [],
      "allowedMutationTypes": [
        "DELETE",
        "EXTEND",
        "CHANGEBRANCH",
        "CHANGELINK",
        "ADDLINK",
        "DELETELINK",
        "DELETECHAIN"
      ],
      "vertexType": "MolecularFragment"
    },
    {
      "lstAPs": [
        {
          "id": 119878,
          "atomPositionNumber": 0,
          "atomPositionNumberInMol": 10,
          "apClass": {
            "rule": "LImidazolidinylideneSubNL",
            "subClass": 0,
            "bndTyp": "SINGLE"
          },
          "dirVec": {
            "x": 1.1053,
            "y": -4.2806,
            "z": -0.0746
          }
        },
        {
          "id": 119879,
          "atomPositionNumber": 1,
          "atomPositionNumberInMol": 11,
          "apClass": {
            "rule": "MImidazolidinylidene",
            "subClass": 1,
            "bndTyp": "SINGLE"
          },
          "dirVec": {
            "x": 0.0066,
            "y": -1.1634,
            "z": -0.2139
          }
        },
        {
          "id": 119880,
          "atomPositionNumber": 2,
          "atomPositionNumberInMol": 12,
          "apClass": {
            "rule": "LImidazolidinylideneSubNL",
            "subClass": 0,
            "bndTyp": "SINGLE"
          },
          "dirVec": {
            "x": -0.4116,
            "y": -1.1759,
            "z": -3.5324
          }
        },
        {
          "id": 119881,
          "atomPositionNumber": 3,
          "atomPositionNumberInMol": 13,
          "apClass": {
            "rule": "LImidazolidinylideneSubCL",
            "subClass": 0,
            "bndTyp": "SINGLE"
          },
          "dirVec": {
            "x": -1.1896,
            "y": -4.3794,
            "z": -4.1809
          }
        },
        {
          "id": 119882,
          "atomPositionNumber": 4,
          "atomPositionNumberInMol": 14,
          "apClass": {
            "rule": "LImidazolidinylideneSubCL",
            "subClass": 0,
            "bndTyp": "SINGLE"
          },
          "dirVec": {
            "x": 2.4239,
            "y": -4.9262,
            "z": -3.0604
          }
        }
      ],
      "lstSymAPs": [
        {
          "symIds": [
            0,
            2
          ]
        },
        {
          "symIds": [
            3,
            4
          ]
        }
      ],
      "mol": {
        "atoms": [
          {
            "elSymbol": "N",
            "p3d": {
              "x": 0.8214,
              "y": -3.7977,
              "z": -1.429
            }
          },
          {
            "elSymbol": "C",
            "p3d": {
              "x": 0.3058,
              "y": -2.5822,
              "z": -1.663
            }
          },
          {
            "elSymbol": "N",
            "p3d": {
              "x": -0.0048,
              "y": -2.4602,
              "z": -2.9405
            }
          },
          {
            "elSymbol": "C",
            "p3d": {
              "x": 0.1672,
              "y": -3.7242,
              "z": -3.6717
            }
          },
          {
            "elSymbol": "C",
            "p3d": {
              "x": 0.9512,
              "y": -4.5908,
              "z": -2.682
            }
          },
          {
            "elSymbol": "H",
            "p3d": {
              "x": 0.6828,
              "y": -3.6212,
              "z": -4.6265
            }
          },
          {
            "elSymbol": "H",
            "p3d": {
              "x": 0.5478,
              "y": -5.6128,
              "z": -2.6141
            }
          }
        ],
        "bonds": [
          {
            "atomIds": [
              0,
              1
            ],
            "bo": "SINGLE"
          },
          {
            "atomIds": [
              2,
              1
            ],
            "bo": "SINGLE"
          },
          {
            "atomIds": [
              3,
              2
            ],
            "bo": "SINGLE"
          },
          {
            "atomIds": [
              3,
              4
            ],
            "bo": "SINGLE"
          },
          {
            "atomIds": [
              4,
              0
            ],
            "bo": "SINGLE"
          },
          {
            "atomIds": [
              5,
              3
            ],
            "bo": "SINGLE"
          },
          {
            "atomIds": [
              6,
              4
            ],
            "bo": "SINGLE"
          }
        ]
      },
      "vertexId": 94,
      "buildingBlockId": 15,
      "buildingBlockType": "FRAGMENT",
      "isRCV": false,
      "properties": {
        "ATTACHMENT_POINTS": "1#LImidazolidinylideneSubNL:0:SINGLE:1.1053%-4.2806%-0.0746 2#MImidazolidinylidene:1:SINGLE:0.0066%-1.1634%-0.2139 3#LImidazolidinylideneSubNL:0:SINGLE:-0.4116%-1.1759%-3.5324 4#LImidazolidinylideneSubCL:0:SINGLE:-1.1896%-4.3794%-4.1809 5#LImidazolidinylideneSubCL:0:SINGLE:2.4239%-4.9262%-3.0604 "
      },
      "uniquefyingPropertyKeys": [],
      "allowedMutationTypes": [
        "DELETE",
        "EXTEND",
        "CHANGEBRANCH",
        "CHANGELINK",
        "ADDLINK",
        "DELETELINK",
        "DELETECHAIN"
      ],
      "vertexType": "MolecularFragment"
    },
    {
      "lstAPs": [
        {
          "id": 119883,
          "atomPositionNumber": 0,
          "atomPositionNumberInMol": 59,
          "apClass": {
            "rule": "Xlig",
            "subClass": 1,
            "bndTyp": "SINGLE"
          },
          "dirVec": {
            "x": 0.0192,
            "y": -0.0048,
            "z": -0.5645
          }
        }
      ],
      "lstSymAPs": [],
      "mol": {
        "atoms": [
          {
            "elSymbol": "C",
            "p3d": {
              "x": -1.967,
              "y": -0.0075,
              "z": -0.4937
            }
          },
          {
            "elSymbol": "N",
            "p3d": {
              "x": -3.1263,
              "y": -0.0054,
              "z": -0.4354
            }
          },
          {
            "elSymbol": "Du",
            "p3d": {
              "x": -1.9744,
              "y": 0.9926,
              "z": -0.5036
            }
          }
        ],
        "bonds": [
          {
            "atomIds": [
              0,
              1
            ],
            "bo": "TRIPLE"
          },
          {
            "atomIds": [
              2,
              0
            ],
            "bo": "SINGLE"
          }
        ]
      },
      "vertexId": 87,
      "buildingBlockId": 65,
      "buildingBlockType": "FRAGMENT",
      "isRCV": false,
      "properties": {
        "ATTACHMENT_POINTS": "1#Xlig:1:SINGLE:0.0192%-0.0048%-0.5645 "
      },
      "uniquefyingPropertyKeys": [],
      "allowedMutationTypes": [
        "DELETE",
        "EXTEND",
        "CHANGEBRANCH",
        "CHANGELINK",
        "ADDLINK",
        "DELETELINK",
        "DELETECHAIN"
      ],
      "vertexType": "MolecularFragment"
    },
    {
      "lstAPs": [
        {
          "id": 119926,
          "atomPositionNumber": 0,
          "atomPositionNumberInMol": 17,
          "apClass": {
            "rule": "SubArL",
            "subClass": 1,
            "bndTyp": "SINGLE"
          },
          "dirVec": {
            "x": 0.2957,
            "y": 0.3816,
            "z": -0.6358
          }
        }
      ],
      "lstSymAPs": [],
      "mol": {
        "atoms": [
          {
            "elSymbol": "C",
            "p3d": {
              "x": 1.7088,
              "y": 0.551,
              "z": -1.2192
            }
          },
          {
            "elSymbol": "C",
            "p3d": {
              "x": 4.2535,
              "y": 0.8673,
              "z": -2.2548
            }
          },
          {
            "elSymbol": "C",
            "p3d": {
              "x": 2.3329,
              "y": 1.7979,
              "z": -1.1377
            }
          },
          {
            "elSymbol": "C",
            "p3d": {
              "x": 2.3315,
              "y": -0.5114,
              "z": -1.8171
            }
          },
          {
            "elSymbol": "C",
            "p3d": {
              "x": 3.6062,
              "y": -0.3595,
              "z": -2.3299
            }
          },
          {
            "elSymbol": "C",
            "p3d": {
              "x": 3.6205,
              "y": 1.9526,
              "z": -1.657
            }
          },
          {
            "elSymbol": "H",
            "p3d": {
              "x": 4.116,
              "y": -1.2062,
              "z": -2.8187
            }
          },
          {
            "elSymbol": "H",
            "p3d": {
              "x": 4.1193,
              "y": 2.9144,
              "z": -1.5883
            }
          },
          {
            "elSymbol": "H",
            "p3d": {
              "x": 5.2485,
              "y": 0.9961,
              "z": -2.6688
            }
          },
          {
            "elSymbol": "C",
            "p3d": {
              "x": 1.6389,
              "y": 2.9732,
              "z": -0.4581
            }
          },
          {
            "elSymbol": "H",
            "p3d": {
              "x": 2.3787,
              "y": 3.6649,
              "z": -0.0604
            }
          },
          {
            "elSymbol": "H",
            "p3d": {
              "x": 1.0049,
              "y": 2.601,
              "z": 0.3676
            }
          },
          {
            "elSymbol": "H",
            "p3d": {
              "x": 1.0013,
              "y": 3.4961,
              "z": -1.199
            }
          },
          {
            "elSymbol": "C",
            "p3d": {
              "x": 1.6397,
              "y": -1.8757,
              "z": -1.9164
            }
          },
          {
            "elSymbol": "H",
            "p3d": {
              "x": 2.3747,
              "y": -2.6603,
              "z": -1.9613
            }
          },
          {
            "elSymbol": "H",
            "p3d": {
              "x": 1.0044,
              "y": -1.9015,
              "z": -2.8054
            }
          },
          {
            "elSymbol": "H",
            "p3d": {
              "x": 1.0057,
              "y": -2.0243,
              "z": -1.0149
            }
          }
        ],
        "bonds": [
          {
            "atomIds": [
              0,
              3
            ],
            "bo": "SINGLE"
          },
          {
            "atomIds": [
              3,
              4
            ],
            "bo": "DOUBLE"
          },
          {
            "atomIds": [
              1,
              4
            ],
            "bo": "SINGLE"
          },
          {
            "atomIds": [
              1,
              5
            ],
            "bo": "DOUBLE"
          },
          {
            "atomIds": [
              2,
              5
            ],
            "bo": "SINGLE"
          },
          {
            "atomIds": [
              0,
              2
            ],
            "bo": "DOUBLE"
          },
          {
            "atomIds": [
              4,
              6
            ],
            "bo": "SINGLE"
          },
          {
            "atomIds": [
              5,
              7
            ],
            "bo": "SINGLE"
          },
          {
            "atomIds": [
              1,
              8
            ],
            "bo": "SINGLE"
          },
          {
            "atomIds": [
              9,
              10
            ],
            "bo": "SINGLE"
          },
          {
            "atomIds": [
              9,
              11
            ],
            "bo": "SINGLE"
          },
          {
            "atomIds": [
              9,
              12
            ],
            "bo": "SINGLE"
          },
          {
            "atomIds": [
              2,
              9
            ],
            "bo": "SINGLE"
          },
          {
            "atomIds": [
              13,
              14
            ],
            "bo": "SINGLE"
          },
          {
            "atomIds": [
              13,
              15
            ],
            "bo": "SINGLE"
          },
          {
            "atomIds": [
              13,
              16
            ],
            "bo": "SINGLE"
          },
          {
            "atomIds": [
              3,
              13
            ],
            "bo": "SINGLE"
          }
        ]
      },
      "vertexId": 89733,
      "buildingBlockId": 37,
      "buildingBlockType": "FRAGMENT",
      "isRCV": false,
      "properties": {
        "ATTACHMENT_POINTS": "1#SubArL:1:SINGLE:0.2957%0.3816%-0.6358 "
      },
      "uniquefyingPropertyKeys": [],
      "allowedMutationTypes": [
        "DELETE",
        "EXTEND",
        "CHANGEBRANCH",
        "CHANGELINK",
        "ADDLINK",
        "DELETELINK",
        "DELETECHAIN"
      ],
      "vertexType": "MolecularFragment"
    },
    {
      "lstAPs": [
        {
          "id": 119927,
          "atomPositionNumber": 0,
          "atomPositionNumberInMol": 34,
          "apClass": {
            "rule": "SubRS",
            "subClass": 1,
            "bndTyp": "SINGLE"
          },
          "dirVec": {
            "x": 0.2865,
            "y": 0.3959,
            "z": -0.6387
          }
        }
      ],
      "lstSymAPs": [],
      "mol": {
        "atoms": [
          {
            "elSymbol": "C",
            "p3d": {
              "x": 0.3969,
              "y": -0.0496,
              "z": 0.8235
            }
          },
          {
            "elSymbol": "H",
            "p3d": {
              "x": -0.6146,
              "y": -0.163,
              "z": 1.2402
            }
          },
          {
            "elSymbol": "H",
            "p3d": {
              "x": 0.9335,
              "y": -0.9979,
              "z": 0.8998
            }
          },
          {
            "elSymbol": "H",
            "p3d": {
              "x": 0.9252,
              "y": 0.7237,
              "z": 1.3995
            }
          }
        ],
        "bonds": [
          {
            "atomIds": [
              0,
              1
            ],
            "bo": "SINGLE"
          },
          {
            "atomIds": [
              0,
              2
            ],
            "bo": "SINGLE"
          },
          {
            "atomIds": [
              0,
              3
            ],
            "bo": "SINGLE"
          }
        ]
      },
      "vertexId": 89737,
      "buildingBlockId": 30,
      "buildingBlockType": "FRAGMENT",
      "isRCV": false,
      "properties": {
        "ATTACHMENT_POINTS": "1#SubRS:1:SINGLE:0.2865%0.3959%-0.6387 "
      },
      "uniquefyingPropertyKeys": [],
      "allowedMutationTypes": [
        "DELETE",
        "EXTEND",
        "CHANGEBRANCH",
        "CHANGELINK",
        "ADDLINK",
        "DELETELINK",
        "DELETECHAIN"
      ],
      "vertexType": "MolecularFragment"
    },
    {
      "lstAPs": [
        {
          "id": 119928,
          "atomPositionNumber": 0,
          "atomPositionNumberInMol": 38,
          "apClass": {
            "rule": "SubArL",
            "subClass": 1,
            "bndTyp": "SINGLE"
          },
          "dirVec": {
            "x": 0.2957,
            "y": 0.3816,
            "z": -0.6358
          }
        }
      ],
      "lstSymAPs": [],
      "mol": {
        "atoms": [
          {
            "elSymbol": "C",
            "p3d": {
              "x": 1.7088,
              "y": 0.551,
              "z": -1.2192
            }
          },
          {
            "elSymbol": "C",
            "p3d": {
              "x": 4.2535,
              "y": 0.8673,
              "z": -2.2548
            }
          },
          {
            "elSymbol": "C",
            "p3d": {
              "x": 2.3329,
              "y": 1.7979,
              "z": -1.1377
            }
          },
          {
            "elSymbol": "C",
            "p3d": {
              "x": 2.3315,
              "y": -0.5114,
              "z": -1.8171
            }
          },
          {
            "elSymbol": "C",
            "p3d": {
              "x": 3.6062,
              "y": -0.3595,
              "z": -2.3299
            }
          },
          {
            "elSymbol": "C",
            "p3d": {
              "x": 3.6205,
              "y": 1.9526,
              "z": -1.657
            }
          },
          {
            "elSymbol": "H",
            "p3d": {
              "x": 4.116,
              "y": -1.2062,
              "z": -2.8187
            }
          },
          {
            "elSymbol": "H",
            "p3d": {
              "x": 4.1193,
              "y": 2.9144,
              "z": -1.5883
            }
          },
          {
            "elSymbol": "H",
            "p3d": {
              "x": 5.2485,
              "y": 0.9961,
              "z": -2.6688
            }
          },
          {
            "elSymbol": "C",
            "p3d": {
              "x": 1.6389,
              "y": 2.9732,
              "z": -0.4581
            }
          },
          {
            "elSymbol": "H",
            "p3d": {
              "x": 2.3787,
              "y": 3.6649,
              "z": -0.0604
            }
          },
          {
            "elSymbol": "H",
            "p3d": {
              "x": 1.0049,
              "y": 2.601,
              "z": 0.3676
            }
          },
          {
            "elSymbol": "H",
            "p3d": {
              "x": 1.0013,
              "y": 3.4961,
              "z": -1.199
            }
          },
          {
            "elSymbol": "C",
            "p3d": {
              "x": 1.6397,
              "y": -1.8757,
              "z": -1.9164
            }
          },
          {
            "elSymbol": "H",
            "p3d": {
              "x": 2.3747,
              "y": -2.6603,
              "z": -1.9613
            }
          },
          {
            "elSymbol": "H",
            "p3d": {
              "x": 1.0044,
              "y": -1.9015,
              "z": -2.8054
            }
          },
          {
            "elSymbol": "H",
            "p3d": {
              "x": 1.0057,
              "y": -2.0243,
              "z": -1.0149
            }
          }
        ],
        "bonds": [
          {
            "atomIds": [
              0,
              3
            ],
            "bo": "SINGLE"
          },
          {
            "atomIds": [
              3,
              4
            ],
            "bo": "DOUBLE"
          },
          {
            "atomIds": [
              1,
              4
            ],
            "bo": "SINGLE"
          },
          {
            "atomIds": [
              1,
              5
            ],
            "bo": "DOUBLE"
          },
          {
            "atomIds": [
              2,
              5
            ],
            "bo": "SINGLE"
          },
          {
            "atomIds": [
              0,
              2
            ],
            "bo": "DOUBLE"
          },
          {
            "atomIds": [
              4,
              6
            ],
            "bo": "SINGLE"
          },
          {
            "atomIds": [
              5,
              7
            ],
            "bo": "SINGLE"
          },
          {
            "atomIds": [
              1,
              8
            ],
            "bo": "SINGLE"
          },
          {
            "atomIds": [
              9,
              10
            ],
            "bo": "SINGLE"
          },
          {
            "atomIds": [
              9,
              11
            ],
            "bo": "SINGLE"
          },
          {
            "atomIds": [
              9,
              12
            ],
            "bo": "SINGLE"
          },
          {
            "atomIds": [
              2,
              9
            ],
            "bo": "SINGLE"
          },
          {
            "atomIds": [
              13,
              14
            ],
            "bo": "SINGLE"
          },
          {
            "atomIds": [
              13,
              15
            ],
            "bo": "SINGLE"
          },
          {
            "atomIds": [
              13,
              16
            ],
            "bo": "SINGLE"
          },
          {
            "atomIds": [
              3,
              13
            ],
            "bo": "SINGLE"
          }
        ]
      },
      "vertexId": 90972,
      "buildingBlockId": 37,
      "buildingBlockType": "FRAGMENT",
      "isRCV": false,
      "properties": {
        "ATTACHMENT_POINTS": "1#SubArL:1:SINGLE:0.2957%0.3816%-0.6358 "
      },
      "uniquefyingPropertyKeys": [],
      "allowedMutationTypes": [
        "DELETE",
        "EXTEND",
        "CHANGEBRANCH",
        "CHANGELINK",
        "ADDLINK",
        "DELETELINK",
        "DELETECHAIN"
      ],
      "vertexType": "MolecularFragment"
    },
    {
      "lstAPs": [
        {
          "id": 119929,
          "atomPositionNumber": 0,
          "atomPositionNumberInMol": 55,
          "apClass": {
            "rule": "SubRS",
            "subClass": 1,
            "bndTyp": "SINGLE"
          },
          "dirVec": {
            "x": 0.2865,
            "y": 0.3959,
            "z": -0.6387
          }
        }
      ],
      "lstSymAPs": [],
      "mol": {
        "atoms": [
          {
            "elSymbol": "C",
            "p3d": {
              "x": 0.3969,
              "y": -0.0496,
              "z": 0.8235
            }
          },
          {
            "elSymbol": "H",
            "p3d": {
              "x": -0.6146,
              "y": -0.163,
              "z": 1.2402
            }
          },
          {
            "elSymbol": "H",
            "p3d": {
              "x": 0.9335,
              "y": -0.9979,
              "z": 0.8998
            }
          },
          {
            "elSymbol": "H",
            "p3d": {
              "x": 0.9252,
              "y": 0.7237,
              "z": 1.3995
            }
          }
        ],
        "bonds": [
          {
            "atomIds": [
              0,
              1
            ],
            "bo": "SINGLE"
          },
          {
            "atomIds": [
              0,
              2
            ],
            "bo": "SINGLE"
          },
          {
            "atomIds": [
              0,
              3
            ],
            "bo": "SINGLE"
          }
        ]
      },
      "vertexId": 90973,
      "buildingBlockId": 30,
      "buildingBlockType": "FRAGMENT",
      "isRCV": false,
      "properties": {
        "ATTACHMENT_POINTS": "1#SubRS:1:SINGLE:0.2865%0.3959%-0.6387 "
      },
      "uniquefyingPropertyKeys": [],
      "allowedMutationTypes": [
        "DELETE",
        "EXTEND",
        "CHANGEBRANCH",
        "CHANGELINK",
        "ADDLINK",
        "DELETELINK",
        "DELETECHAIN"
      ],
      "vertexType": "MolecularFragment"
    }
  ],
  "gEdges": [
    {
      "srcAPID": 119874,
      "trgAPID": 119877,
      "bondType": "SINGLE"
    },
    {
      "srcAPID": 119876,
      "trgAPID": 119879,
      "bondType": "SINGLE"
    },
    {
      "srcAPID": 119875,
      "trgAPID": 119883,
      "bondType": "SINGLE"
    },
    {
      "srcAPID": 119878,
      "trgAPID": 119926,
      "bondType": "SINGLE"
    },
    {
      "srcAPID": 119881,
      "trgAPID": 119927,
      "bondType": "SINGLE"
    },
    {
      "srcAPID": 119880,
      "trgAPID": 119928,
      "bondType": "SINGLE"
    },
    {
      "srcAPID": 119882,
      "trgAPID": 119929,
      "bondType": "SINGLE"
    }
  ],
  "gRings": [],
  "symVertices": [
    {
      "symIds": [
        89733,
        90972
      ]
    },
    {
      "symIds": [
        89737,
        90973
      ]
    }
  ]
}

> <SMILES>
[Pt](C#O)(OC([H])([H])[H])([C]1N(C(C(N1C=2C(=C(C(=C(C2C([H])([H])[H])[H])[H])[H])C([H])([H])[H])([H])C([H])([H])[H])([H])C([H])([H])[H])C=3C(=C(C(=C(C3C([H])([H])[H])[H])[H])[H])C([H])([H])[H])C#N

$$$$
