M00004944
  CDK     04222210283D

 40 41  0  0  0  0  0  0  0  0999 V2000
    2.5028    0.5367   -0.1660 Pt  0  0  0  0  0  0  0  0  0  0  0  0
    4.4118    0.8442   -0.1782 C   0  0  0  0  0  0  0  0  0  0  0  0
    5.5336    1.0686   -0.2071 O   0  0  0  0  0  0  0  0  0  0  0  0
    2.8045   -1.4295    0.3242 O   0  0  0  0  0  0  0  0  0  0  0  0
    2.6280   -2.2358   -0.8189 C   0  0  0  0  0  0  0  0  0  0  0  0
    2.9020   -3.2548   -0.5105 H   0  0  0  0  0  0  0  0  0  0  0  0
    3.2903   -1.8933   -1.6249 H   0  0  0  0  0  0  0  0  0  0  0  0
    1.5785   -2.2011   -1.1398 H   0  0  0  0  0  0  0  0  0  0  0  0
   -0.3225    0.2036    0.7899 N   0  0  0  0  0  0  0  0  0  0  0  0
   -0.2501    0.4325   -1.4824 C   0  0  0  0  0  0  0  0  0  0  0  0
    0.1858    0.6233   -2.7849 C   0  0  0  0  0  0  0  0  0  0  0  0
    1.2494    0.7544   -3.0018 H   0  0  0  0  0  0  0  0  0  0  0  0
   -0.7866    0.6629   -3.8018 C   0  0  0  0  0  0  0  0  0  0  0  0
   -0.4718    0.8122   -4.8350 H   0  0  0  0  0  0  0  0  0  0  0  0
   -2.1418    0.5235   -3.5013 C   0  0  0  0  0  0  0  0  0  0  0  0
   -2.8788    0.5574   -4.3050 H   0  0  0  0  0  0  0  0  0  0  0  0
   -2.5856    0.3476   -2.1742 C   0  0  0  0  0  0  0  0  0  0  0  0
   -3.6466    0.2528   -1.9578 H   0  0  0  0  0  0  0  0  0  0  0  0
   -1.6346    0.3082   -1.1730 C   0  0  0  0  0  0  0  0  0  0  0  0
   -1.7976    0.1644    0.3437 C   0  0  0  0  0  0  0  0  0  0  0  0
    0.5220    0.3545   -0.2342 C   0  0  1  0  0  0  0  0  0  0  0  0
   -2.4234   -1.1715    0.7260 C   0  0  0  0  0  0  0  0  0  0  0  0
   -2.4942   -1.3037    1.8126 H   0  0  0  0  0  0  0  0  0  0  0  0
   -1.8495   -2.0215    0.3291 H   0  0  0  0  0  0  0  0  0  0  0  0
   -3.4410   -1.2561    0.3215 H   0  0  0  0  0  0  0  0  0  0  0  0
    1.1830    1.1142    2.5350 C   0  0  0  0  0  0  0  0  0  0  0  0
    0.0944    0.0823    2.2309 C   0  0  0  0  0  0  0  0  0  0  0  0
    0.5789   -1.3412    2.4937 C   0  0  0  0  0  0  0  0  0  0  0  0
   -0.1966   -2.0935    2.3306 H   0  0  0  0  0  0  0  0  0  0  0  0
    0.9455   -1.4504    3.5208 H   0  0  0  0  0  0  0  0  0  0  0  0
    1.4353   -1.6105    1.8315 H   0  0  0  0  0  0  0  0  0  0  0  0
    1.2588    1.2958    3.6137 H   0  0  0  0  0  0  0  0  0  0  0  0
    2.1844    0.7772    2.1988 H   0  0  0  0  0  0  0  0  0  0  0  0
    1.0006    2.0863    2.0491 H   0  0  0  0  0  0  0  0  0  0  0  0
   -0.8165    0.3016    2.8492 H   0  0  0  0  0  0  0  0  0  0  0  0
   -2.5400    1.3564    0.9389 C   0  0  0  0  0  0  0  0  0  0  0  0
   -3.5621    1.4196    0.5427 H   0  0  0  0  0  0  0  0  0  0  0  0
   -2.0449    2.3092    0.6942 H   0  0  0  0  0  0  0  0  0  0  0  0
   -2.6165    1.3008    2.0312 H   0  0  0  0  0  0  0  0  0  0  0  0
    2.2110    2.7728   -0.6103 Cl  0  0  0  0  0  0  0  0  0  0  0  0
  2  3  3  0  0  0  0
  1  2  1  0  0  0  0
  5  6  1  0  0  0  0
  5  7  1  0  0  0  0
  5  8  1  0  0  0  0
  4  5  1  0  0  0  0
  1  4  1  0  0  0  0
  9 20  1  0  0  0  0
 10 11  1  0  0  0  0
 11 12  1  0  0  0  0
 13 11  2  0  0  0  0
 14 13  1  0  0  0  0
 15 13  1  0  0  0  0
 16 15  1  0  0  0  0
 17 15  2  0  0  0  0
 18 17  1  0  0  0  0
 19 10  2  0  0  0  0
 20 19  1  0  0  0  0
  9 21  1  0  0  0  0
 10 21  1  0  0  0  0
 17 19  1  0  0  0  0
  1 21  1  0  0  0  0
 23 22  1  0  0  0  0
 24 22  1  0  0  0  0
 25 22  1  0  0  0  0
 20 22  1  0  0  0  0
 26 27  1  0  0  0  0
 27 28  1  0  0  0  0
 28 29  1  0  0  0  0
 28 30  1  0  0  0  0
 28 31  1  0  0  0  0
 26 32  1  0  0  0  0
 26 33  1  0  0  0  0
 26 34  1  0  0  0  0
 27 35  1  0  0  0  0
  9 27  1  0  0  0  0
 37 36  1  0  0  0  0
 38 36  1  0  0  0  0
 39 36  1  0  0  0  0
 20 36  1  0  0  0  0
  1 40  1  0  0  0  0
M  END
> <PM6_ENERGY>
-229.228

> <UID>
IKMMWTJRLNPIQM-LMHKDPQNNA-M

> <FITNESS>
1.14439

> <GCODE>
5723

> <GraphENC>
5723 72_1_0,80_65_1,93_15_1,88_67_1,113604_29_1,113484_33_1,113494_29_1, 72_0_80_0_SINGLE_Xlig:0_Xlig:1,72_2_93_3_SINGLE_scaff:0_MIsoindolylidene:1,72_1_88_0_SINGLE_Xlig:0_Xlig:1,93_2_113604_0_SINGLE_LIsoindolylideneSubCS:0_LIsoindolylideneSubCS:1,93_0_113484_0_SINGLE_LIsoindolylideneSubNL:0_SubRM:1,93_1_113494_0_SINGLE_LIsoindolylideneSubCS:0_LIsoindolylideneSubCS:1, SymmetricSet [symIds=[113604, 113494]] 

> <GraphJson>
{
  "graphId": 5723,
  "gVertices": [
    {
      "lstAPs": [
        {
          "id": 149264,
          "atomPositionNumber": 0,
          "atomPositionNumberInMol": 0,
          "apClass": {
            "rule": "Xlig",
            "subClass": 0,
            "bndTyp": "SINGLE"
          },
          "dirVec": {
            "x": -2.3339,
            "y": -0.0087,
            "z": 0.8172
          }
        },
        {
          "id": 149265,
          "atomPositionNumber": 0,
          "atomPositionNumberInMol": 0,
          "apClass": {
            "rule": "Xlig",
            "subClass": 0,
            "bndTyp": "SINGLE"
          },
          "dirVec": {
            "x": 2.336,
            "y": -5.0E-4,
            "z": 0.829
          }
        },
        {
          "id": 149266,
          "atomPositionNumber": 0,
          "atomPositionNumberInMol": 0,
          "apClass": {
            "rule": "scaff",
            "subClass": 0,
            "bndTyp": "SINGLE"
          },
          "dirVec": {
            "x": -0.0095,
            "y": 0.0046,
            "z": -1.7113
          }
        }
      ],
      "lstSymAPs": [
        {
          "symIds": [
            0,
            1
          ]
        }
      ],
      "mol": {
        "atoms": [
          {
            "elSymbol": "Pt",
            "p3d": {
              "x": -0.0098,
              "y": 0.0049,
              "z": 0.6289
            }
          },
          {
            "elSymbol": "C",
            "p3d": {
              "x": -6.0E-4,
              "y": 0.0016,
              "z": 2.5609
            }
          },
          {
            "elSymbol": "O",
            "p3d": {
              "x": 0.0025,
              "y": -0.0041,
              "z": 3.6974
            }
          },
          {
            "elSymbol": "Du",
            "p3d": {
              "x": -0.007,
              "y": 1.0013,
              "z": 0.6372
            }
          },
          {
            "elSymbol": "Du",
            "p3d": {
              "x": -0.0014,
              "y": 0.9902,
              "z": 2.5698
            }
          }
        ],
        "bonds": [
          {
            "atomIds": [
              1,
              2
            ],
            "bo": "TRIPLE"
          },
          {
            "atomIds": [
              0,
              1
            ],
            "bo": "SINGLE"
          },
          {
            "atomIds": [
              3,
              0
            ],
            "bo": "SINGLE"
          },
          {
            "atomIds": [
              4,
              1
            ],
            "bo": "SINGLE"
          }
        ]
      },
      "vertexId": 72,
      "buildingBlockId": 0,
      "buildingBlockType": "SCAFFOLD",
      "isRCV": false,
      "properties": {
        "ATTACHMENT_POINTS": "1#Xlig:0:SINGLE:-2.3339%-0.0087%0.8172,Xlig:0:SINGLE:2.3360%-0.0005%0.8290,scaff:0:SINGLE:-0.0095%0.0046%-1.7113 "
      },
      "uniquefyingPropertyKeys": [],
      "allowedMutationTypes": [
        "DELETE",
        "EXTEND",
        "CHANGEBRANCH",
        "CHANGELINK",
        "ADDLINK",
        "DELETELINK",
        "DELETECHAIN"
      ],
      "vertexType": "MolecularFragment"
    },
    {
      "lstAPs": [
        {
          "id": 149267,
          "atomPositionNumber": 0,
          "atomPositionNumberInMol": 5,
          "apClass": {
            "rule": "Xlig",
            "subClass": 1,
            "bndTyp": "SINGLE"
          },
          "dirVec": {
            "x": -0.1753,
            "y": 0.0948,
            "z": -0.4464
          }
        }
      ],
      "lstSymAPs": [],
      "mol": {
        "atoms": [
          {
            "elSymbol": "O",
            "p3d": {
              "x": -0.3534,
              "y": 2.1044,
              "z": -0.7339
            }
          },
          {
            "elSymbol": "C",
            "p3d": {
              "x": -0.5345,
              "y": 2.7646,
              "z": 0.4801
            }
          },
          {
            "elSymbol": "H",
            "p3d": {
              "x": -0.3728,
              "y": 3.8337,
              "z": 0.2724
            }
          },
          {
            "elSymbol": "H",
            "p3d": {
              "x": 0.1816,
              "y": 2.4161,
              "z": 1.2384
            }
          },
          {
            "elSymbol": "H",
            "p3d": {
              "x": -1.553,
              "y": 2.6149,
              "z": 0.8489
            }
          }
        ],
        "bonds": [
          {
            "atomIds": [
              1,
              2
            ],
            "bo": "SINGLE"
          },
          {
            "atomIds": [
              1,
              3
            ],
            "bo": "SINGLE"
          },
          {
            "atomIds": [
              1,
              4
            ],
            "bo": "SINGLE"
          },
          {
            "atomIds": [
              0,
              1
            ],
            "bo": "SINGLE"
          }
        ]
      },
      "vertexId": 80,
      "buildingBlockId": 64,
      "buildingBlockType": "FRAGMENT",
      "isRCV": false,
      "properties": {
        "ATTACHMENT_POINTS": "1#Xlig:1:SINGLE:-0.1753%0.0948%-0.4464 "
      },
      "uniquefyingPropertyKeys": [],
      "allowedMutationTypes": [
        "DELETE",
        "EXTEND",
        "CHANGEBRANCH",
        "CHANGELINK",
        "ADDLINK",
        "DELETELINK",
        "DELETECHAIN"
      ],
      "vertexType": "MolecularFragment"
    },
    {
      "lstAPs": [
        {
          "id": 149268,
          "atomPositionNumber": 0,
          "atomPositionNumberInMol": 10,
          "apClass": {
            "rule": "LIsoindolylideneSubNL",
            "subClass": 0,
            "bndTyp": "SINGLE"
          },
          "dirVec": {
            "x": 8.2611,
            "y": 13.2699,
            "z": 19.2517
          }
        },
        {
          "id": 149269,
          "atomPositionNumber": 11,
          "atomPositionNumberInMol": 21,
          "apClass": {
            "rule": "LIsoindolylideneSubCS",
            "subClass": 0,
            "bndTyp": "SINGLE"
          },
          "dirVec": {
            "x": 8.8004,
            "y": 11.8294,
            "z": 16.2112
          }
        },
        {
          "id": 149270,
          "atomPositionNumber": 11,
          "atomPositionNumberInMol": 21,
          "apClass": {
            "rule": "LIsoindolylideneSubCS",
            "subClass": 0,
            "bndTyp": "SINGLE"
          },
          "dirVec": {
            "x": 9.9911,
            "y": 10.7246,
            "z": 18.2628
          }
        },
        {
          "id": 149271,
          "atomPositionNumber": 12,
          "atomPositionNumberInMol": 22,
          "apClass": {
            "rule": "MIsoindolylidene",
            "subClass": 1,
            "bndTyp": "SINGLE"
          },
          "dirVec": {
            "x": 10.5893,
            "y": 15.7982,
            "z": 19.2952
          }
        }
      ],
      "lstSymAPs": [
        {
          "symIds": [
            1,
            2
          ]
        }
      ],
      "mol": {
        "atoms": [
          {
            "elSymbol": "N",
            "p3d": {
              "x": 9.4489,
              "y": 13.1799,
              "z": 18.2942
            }
          },
          {
            "elSymbol": "C",
            "p3d": {
              "x": 11.4201,
              "y": 13.7017,
              "z": 17.3025
            }
          },
          {
            "elSymbol": "C",
            "p3d": {
              "x": 12.5951,
              "y": 14.339,
              "z": 16.9164
            }
          },
          {
            "elSymbol": "H",
            "p3d": {
              "x": 12.8733,
              "y": 15.3,
              "z": 17.3622
            }
          },
          {
            "elSymbol": "C",
            "p3d": {
              "x": 13.4411,
              "y": 13.7204,
              "z": 15.9914
            }
          },
          {
            "elSymbol": "H",
            "p3d": {
              "x": 14.3384,
              "y": 14.2201,
              "z": 15.6587
            }
          },
          {
            "elSymbol": "C",
            "p3d": {
              "x": 13.0993,
              "y": 12.4808,
              "z": 15.4917
            }
          },
          {
            "elSymbol": "H",
            "p3d": {
              "x": 13.7585,
              "y": 11.989,
              "z": 14.7813
            }
          },
          {
            "elSymbol": "C",
            "p3d": {
              "x": 11.9512,
              "y": 11.8214,
              "z": 15.8884
            }
          },
          {
            "elSymbol": "H",
            "p3d": {
              "x": 11.7213,
              "y": 10.8277,
              "z": 15.5012
            }
          },
          {
            "elSymbol": "C",
            "p3d": {
              "x": 11.1202,
              "y": 12.434,
              "z": 16.8015
            }
          },
          {
            "elSymbol": "C",
            "p3d": {
              "x": 9.7825,
              "y": 11.9664,
              "z": 17.3844
            }
          },
          {
            "elSymbol": "C",
            "p3d": {
              "x": 10.4002,
              "y": 14.1128,
              "z": 18.2438
            }
          }
        ],
        "bonds": [
          {
            "atomIds": [
              0,
              11
            ],
            "bo": "SINGLE"
          },
          {
            "atomIds": [
              1,
              2
            ],
            "bo": "SINGLE"
          },
          {
            "atomIds": [
              2,
              3
            ],
            "bo": "SINGLE"
          },
          {
            "atomIds": [
              4,
              2
            ],
            "bo": "DOUBLE"
          },
          {
            "atomIds": [
              5,
              4
            ],
            "bo": "SINGLE"
          },
          {
            "atomIds": [
              6,
              4
            ],
            "bo": "SINGLE"
          },
          {
            "atomIds": [
              7,
              6
            ],
            "bo": "SINGLE"
          },
          {
            "atomIds": [
              8,
              6
            ],
            "bo": "DOUBLE"
          },
          {
            "atomIds": [
              9,
              8
            ],
            "bo": "SINGLE"
          },
          {
            "atomIds": [
              10,
              1
            ],
            "bo": "DOUBLE"
          },
          {
            "atomIds": [
              11,
              10
            ],
            "bo": "SINGLE"
          },
          {
            "atomIds": [
              0,
              12
            ],
            "bo": "SINGLE"
          },
          {
            "atomIds": [
              1,
              12
            ],
            "bo": "SINGLE"
          },
          {
            "atomIds": [
              8,
              10
            ],
            "bo": "SINGLE"
          }
        ]
      },
      "vertexId": 93,
      "buildingBlockId": 14,
      "buildingBlockType": "FRAGMENT",
      "isRCV": false,
      "properties": {
        "ATTACHMENT_POINTS": "1#LIsoindolylideneSubNL:0:SINGLE:8.2611%13.2699%19.2517 12#LIsoindolylideneSubCS:0:SINGLE:8.8004%11.8294%16.2112,LIsoindolylideneSubCS:0:SINGLE:9.9911%10.7246%18.2628 13#MIsoindolylidene:1:SINGLE:10.5893%15.7982%19.2952 "
      },
      "uniquefyingPropertyKeys": [],
      "allowedMutationTypes": [
        "DELETE",
        "EXTEND",
        "CHANGEBRANCH",
        "CHANGELINK",
        "ADDLINK",
        "DELETELINK",
        "DELETECHAIN"
      ],
      "vertexType": "MolecularFragment"
    },
    {
      "lstAPs": [
        {
          "id": 149272,
          "atomPositionNumber": 0,
          "atomPositionNumberInMol": 41,
          "apClass": {
            "rule": "Xlig",
            "subClass": 1,
            "bndTyp": "SINGLE"
          },
          "dirVec": {
            "x": -0.0053,
            "y": -0.0027,
            "z": 0.63
          }
        }
      ],
      "lstSymAPs": [],
      "mol": {
        "atoms": [
          {
            "elSymbol": "Cl",
            "p3d": {
              "x": 2.3243,
              "y": -0.0063,
              "z": 0.8189
            }
          }
        ],
        "bonds": []
      },
      "vertexId": 88,
      "buildingBlockId": 66,
      "buildingBlockType": "FRAGMENT",
      "isRCV": false,
      "properties": {
        "ATTACHMENT_POINTS": "1#Xlig:1:SINGLE:-0.0053%-0.0027%0.6300 "
      },
      "uniquefyingPropertyKeys": [],
      "allowedMutationTypes": [
        "DELETE",
        "EXTEND",
        "CHANGEBRANCH",
        "CHANGELINK",
        "ADDLINK",
        "DELETELINK",
        "DELETECHAIN"
      ],
      "vertexType": "MolecularFragment"
    },
    {
      "lstAPs": [
        {
          "id": 149309,
          "atomPositionNumber": 0,
          "atomPositionNumberInMol": 23,
          "apClass": {
            "rule": "LIsoindolylideneSubCS",
            "subClass": 1,
            "bndTyp": "SINGLE"
          },
          "dirVec": {
            "x": -0.025,
            "y": 17.9977,
            "z": 6.198
          }
        }
      ],
      "lstSymAPs": [],
      "mol": {
        "atoms": [
          {
            "elSymbol": "C",
            "p3d": {
              "x": -1.0726,
              "y": 17.7752,
              "z": 7.3038
            }
          },
          {
            "elSymbol": "H",
            "p3d": {
              "x": -1.9064,
              "y": 17.1937,
              "z": 6.9026
            }
          },
          {
            "elSymbol": "H",
            "p3d": {
              "x": -1.4256,
              "y": 18.7349,
              "z": 7.6795
            }
          },
          {
            "elSymbol": "H",
            "p3d": {
              "x": -0.6103,
              "y": 17.2081,
              "z": 8.1194
            }
          }
        ],
        "bonds": [
          {
            "atomIds": [
              1,
              0
            ],
            "bo": "SINGLE"
          },
          {
            "atomIds": [
              2,
              0
            ],
            "bo": "SINGLE"
          },
          {
            "atomIds": [
              3,
              0
            ],
            "bo": "SINGLE"
          }
        ]
      },
      "vertexId": 113604,
      "buildingBlockId": 28,
      "buildingBlockType": "FRAGMENT",
      "isRCV": false,
      "properties": {
        "ATTACHMENT_POINTS": "1#LIsoindolylideneSubCS:1:SINGLE:-0.0250%17.9977%6.1980 "
      },
      "uniquefyingPropertyKeys": [],
      "allowedMutationTypes": [
        "DELETE",
        "EXTEND",
        "CHANGEBRANCH",
        "CHANGELINK",
        "ADDLINK",
        "DELETELINK",
        "DELETECHAIN"
      ],
      "vertexType": "MolecularFragment"
    },
    {
      "lstAPs": [
        {
          "id": 149310,
          "atomPositionNumber": 1,
          "atomPositionNumberInMol": 28,
          "apClass": {
            "rule": "SubRM",
            "subClass": 1,
            "bndTyp": "SINGLE"
          },
          "dirVec": {
            "x": 0.2868,
            "y": 0.385,
            "z": -0.643
          }
        }
      ],
      "lstSymAPs": [],
      "mol": {
        "atoms": [
          {
            "elSymbol": "C",
            "p3d": {
              "x": 1.141,
              "y": 1.0262,
              "z": 1.6347
            }
          },
          {
            "elSymbol": "C",
            "p3d": {
              "x": 0.3967,
              "y": -0.0479,
              "z": 0.8227
            }
          },
          {
            "elSymbol": "C",
            "p3d": {
              "x": 1.1459,
              "y": -1.371,
              "z": 0.9201
            }
          },
          {
            "elSymbol": "H",
            "p3d": {
              "x": 2.1461,
              "y": -1.2583,
              "z": 0.4976
            }
          },
          {
            "elSymbol": "H",
            "p3d": {
              "x": 0.6013,
              "y": -2.1408,
              "z": 0.3461
            }
          },
          {
            "elSymbol": "H",
            "p3d": {
              "x": 1.2113,
              "y": -1.6946,
              "z": 1.9559
            }
          },
          {
            "elSymbol": "H",
            "p3d": {
              "x": 2.1541,
              "y": 1.1435,
              "z": 1.2119
            }
          },
          {
            "elSymbol": "H",
            "p3d": {
              "x": 0.6143,
              "y": 1.976,
              "z": 1.5626
            }
          },
          {
            "elSymbol": "H",
            "p3d": {
              "x": 1.2058,
              "y": 0.7088,
              "z": 2.6868
            }
          },
          {
            "elSymbol": "H",
            "p3d": {
              "x": -0.6215,
              "y": -0.1789,
              "z": 1.2377
            }
          }
        ],
        "bonds": [
          {
            "atomIds": [
              0,
              1
            ],
            "bo": "SINGLE"
          },
          {
            "atomIds": [
              1,
              2
            ],
            "bo": "SINGLE"
          },
          {
            "atomIds": [
              2,
              3
            ],
            "bo": "SINGLE"
          },
          {
            "atomIds": [
              2,
              4
            ],
            "bo": "SINGLE"
          },
          {
            "atomIds": [
              2,
              5
            ],
            "bo": "SINGLE"
          },
          {
            "atomIds": [
              0,
              6
            ],
            "bo": "SINGLE"
          },
          {
            "atomIds": [
              0,
              7
            ],
            "bo": "SINGLE"
          },
          {
            "atomIds": [
              0,
              8
            ],
            "bo": "SINGLE"
          },
          {
            "atomIds": [
              1,
              9
            ],
            "bo": "SINGLE"
          }
        ]
      },
      "vertexId": 113484,
      "buildingBlockId": 32,
      "buildingBlockType": "FRAGMENT",
      "isRCV": false,
      "properties": {
        "ATTACHMENT_POINTS": "2#SubRM:1:SINGLE:0.2868%0.3850%-0.6430 "
      },
      "uniquefyingPropertyKeys": [],
      "allowedMutationTypes": [
        "DELETE",
        "EXTEND",
        "CHANGEBRANCH",
        "CHANGELINK",
        "ADDLINK",
        "DELETELINK",
        "DELETECHAIN"
      ],
      "vertexType": "MolecularFragment"
    },
    {
      "lstAPs": [
        {
          "id": 149311,
          "atomPositionNumber": 0,
          "atomPositionNumberInMol": 37,
          "apClass": {
            "rule": "LIsoindolylideneSubCS",
            "subClass": 1,
            "bndTyp": "SINGLE"
          },
          "dirVec": {
            "x": -0.025,
            "y": 17.9977,
            "z": 6.198
          }
        }
      ],
      "lstSymAPs": [],
      "mol": {
        "atoms": [
          {
            "elSymbol": "C",
            "p3d": {
              "x": -1.0726,
              "y": 17.7752,
              "z": 7.3038
            }
          },
          {
            "elSymbol": "H",
            "p3d": {
              "x": -1.9064,
              "y": 17.1937,
              "z": 6.9026
            }
          },
          {
            "elSymbol": "H",
            "p3d": {
              "x": -1.4256,
              "y": 18.7349,
              "z": 7.6795
            }
          },
          {
            "elSymbol": "H",
            "p3d": {
              "x": -0.6103,
              "y": 17.2081,
              "z": 8.1194
            }
          }
        ],
        "bonds": [
          {
            "atomIds": [
              1,
              0
            ],
            "bo": "SINGLE"
          },
          {
            "atomIds": [
              2,
              0
            ],
            "bo": "SINGLE"
          },
          {
            "atomIds": [
              3,
              0
            ],
            "bo": "SINGLE"
          }
        ]
      },
      "vertexId": 113494,
      "buildingBlockId": 28,
      "buildingBlockType": "FRAGMENT",
      "isRCV": false,
      "properties": {
        "ATTACHMENT_POINTS": "1#LIsoindolylideneSubCS:1:SINGLE:-0.0250%17.9977%6.1980 "
      },
      "uniquefyingPropertyKeys": [],
      "allowedMutationTypes": [
        "DELETE",
        "EXTEND",
        "CHANGEBRANCH",
        "CHANGELINK",
        "ADDLINK",
        "DELETELINK",
        "DELETECHAIN"
      ],
      "vertexType": "MolecularFragment"
    }
  ],
  "gEdges": [
    {
      "srcAPID": 149264,
      "trgAPID": 149267,
      "bondType": "SINGLE"
    },
    {
      "srcAPID": 149266,
      "trgAPID": 149271,
      "bondType": "SINGLE"
    },
    {
      "srcAPID": 149265,
      "trgAPID": 149272,
      "bondType": "SINGLE"
    },
    {
      "srcAPID": 149270,
      "trgAPID": 149309,
      "bondType": "SINGLE"
    },
    {
      "srcAPID": 149268,
      "trgAPID": 149310,
      "bondType": "SINGLE"
    },
    {
      "srcAPID": 149269,
      "trgAPID": 149311,
      "bondType": "SINGLE"
    }
  ],
  "gRings": [],
  "symVertices": [
    {
      "symIds": [
        113604,
        113494
      ]
    }
  ]
}

> <SMILES>
[Pt](C#O)(OC([H])([H])[H])([C]1N(C(C2=C1C([H])=C([H])C([H])=C2[H])(C([H])([H])[H])C([H])([H])[H])C(C([H])([H])[H])(C([H])([H])[H])[H])Cl

$$$$
