M00005383
  CDK     04222210383D

 32 32  0  0  0  0  0  0  0  0999 V2000
   -1.8556   -0.2878   -0.2928 Pt  0  0  0  0  0  0  0  0  0  0  0  0
   -3.7939   -0.2941   -0.4791 C   0  0  0  0  0  0  0  0  0  0  0  0
   -4.9329   -0.2974   -0.5822 O   0  0  0  0  0  0  0  0  0  0  0  0
   -1.2862    1.6525   -0.6029 O   0  0  0  0  0  0  0  0  0  0  0  0
   -2.1349    2.3263   -1.5066 C   0  0  0  0  0  0  0  0  0  0  0  0
   -1.6653    3.3036   -1.6860 H   0  0  0  0  0  0  0  0  0  0  0  0
   -3.1223    2.4644   -1.0483 H   0  0  0  0  0  0  0  0  0  0  0  0
   -2.2076    1.7598   -2.4432 H   0  0  0  0  0  0  0  0  0  0  0  0
    0.4105   -0.1216   -0.1530 P   0  0  0  0  0  0  0  0  0  0  0  0
    1.2714   -1.6774    0.4619 C   0  0  0  0  0  0  0  0  0  0  0  0
    0.7980   -2.5713   -0.0034 H   0  0  0  0  0  0  0  0  0  0  0  0
    2.3350   -1.6906    0.1637 H   0  0  0  0  0  0  0  0  0  0  0  0
    1.1162   -1.7308    1.9797 C   0  0  0  0  0  0  0  0  0  0  0  0
    0.0484   -1.8851    2.2592 H   0  0  0  0  0  0  0  0  0  0  0  0
    1.6340   -2.6383    2.3577 H   0  0  0  0  0  0  0  0  0  0  0  0
    1.6807   -0.4974    2.7006 C   0  0  0  0  0  0  0  0  0  0  0  0
    2.7445   -0.3519    2.4310 H   0  0  0  0  0  0  0  0  0  0  0  0
    1.6762   -0.6882    3.7929 H   0  0  0  0  0  0  0  0  0  0  0  0
    0.8832    0.7852    2.4179 C   0  0  0  0  0  0  0  0  0  0  0  0
    1.2539    1.5935    3.0845 H   0  0  0  0  0  0  0  0  0  0  0  0
   -0.1794    0.6424    2.7160 H   0  0  0  0  0  0  0  0  0  0  0  0
    0.9802    1.2661    0.9732 C   0  0  0  0  0  0  0  0  0  0  0  0
    2.0071    1.5849    0.7180 H   0  0  0  0  0  0  0  0  0  0  0  0
    0.3220    2.1564    0.8053 H   0  0  0  0  0  0  0  0  0  0  0  0
    0.2600   -0.7649   -2.8251 C   0  0  0  0  0  0  0  0  0  0  0  0
    0.9968    0.2022   -1.9124 C   0  0  0  0  0  0  0  0  0  0  0  0
   -0.8398   -0.7225   -2.7048 H   0  0  0  0  0  0  0  0  0  0  0  0
    0.4615   -0.5276   -3.8805 H   0  0  0  0  0  0  0  0  0  0  0  0
    0.5636   -1.8125   -2.6841 H   0  0  0  0  0  0  0  0  0  0  0  0
    2.0926    0.1024   -2.0070 H   0  0  0  0  0  0  0  0  0  0  0  0
    0.7477    1.2553   -2.1802 H   0  0  0  0  0  0  0  0  0  0  0  0
   -2.2652   -2.5354    0.1298 Cl  0  0  0  0  0  0  0  0  0  0  0  0
  2  3  3  0  0  0  0
  1  2  1  0  0  0  0
  5  6  1  0  0  0  0
  5  7  1  0  0  0  0
  5  8  1  0  0  0  0
  4  5  1  0  0  0  0
  1  4  1  0  0  0  0
 10  9  1  0  0  0  0
 11 10  1  0  0  0  0
 12 10  1  0  0  0  0
 13 10  1  0  0  0  0
 14 13  1  0  0  0  0
 15 13  1  0  0  0  0
 16 13  1  0  0  0  0
 17 16  1  0  0  0  0
 18 16  1  0  0  0  0
 19 16  1  0  0  0  0
 19 22  1  0  0  0  0
 20 19  1  0  0  0  0
 21 19  1  0  0  0  0
 22  9  1  0  0  0  0
 23 22  1  0  0  0  0
 24 22  1  0  0  0  0
  1  9  1  0  0  0  0
 25 26  1  0  0  0  0
 25 27  1  0  0  0  0
 25 28  1  0  0  0  0
 25 29  1  0  0  0  0
 26 30  1  0  0  0  0
 26 31  1  0  0  0  0
  9 26  1  0  0  0  0
  1 32  1  0  0  0  0
M  END
> <PM6_ENERGY>
-505.206

> <UID>
CLPUHNZXFMOGAX-PPKFRKLVNA-M

> <FITNESS>
1.14366

> <GCODE>
6192

> <GraphENC>
6192 72_1_0,80_65_1,105_43_1,88_67_1,122913_32_1, 72_0_80_0_SINGLE_Xlig:0_Xlig:1,72_2_105_1_SINGLE_scaff:0_MPhosphine:1,72_1_88_0_SINGLE_Xlig:0_Xlig:1,105_0_122913_0_SINGLE_LPhosphineSubM:0_SubRS:1, 

> <GraphJson>
{
  "graphId": 6192,
  "gVertices": [
    {
      "lstAPs": [
        {
          "id": 161314,
          "atomPositionNumber": 0,
          "atomPositionNumberInMol": 0,
          "apClass": {
            "rule": "Xlig",
            "subClass": 0,
            "bndTyp": "SINGLE"
          },
          "dirVec": {
            "x": -2.3339,
            "y": -0.0087,
            "z": 0.8172
          }
        },
        {
          "id": 161315,
          "atomPositionNumber": 0,
          "atomPositionNumberInMol": 0,
          "apClass": {
            "rule": "Xlig",
            "subClass": 0,
            "bndTyp": "SINGLE"
          },
          "dirVec": {
            "x": 2.336,
            "y": -5.0E-4,
            "z": 0.829
          }
        },
        {
          "id": 161316,
          "atomPositionNumber": 0,
          "atomPositionNumberInMol": 0,
          "apClass": {
            "rule": "scaff",
            "subClass": 0,
            "bndTyp": "SINGLE"
          },
          "dirVec": {
            "x": -0.0095,
            "y": 0.0046,
            "z": -1.7113
          }
        }
      ],
      "lstSymAPs": [
        {
          "symIds": [
            0,
            1
          ]
        }
      ],
      "mol": {
        "atoms": [
          {
            "elSymbol": "Pt",
            "p3d": {
              "x": -0.0098,
              "y": 0.0049,
              "z": 0.6289
            }
          },
          {
            "elSymbol": "C",
            "p3d": {
              "x": -6.0E-4,
              "y": 0.0016,
              "z": 2.5609
            }
          },
          {
            "elSymbol": "O",
            "p3d": {
              "x": 0.0025,
              "y": -0.0041,
              "z": 3.6974
            }
          },
          {
            "elSymbol": "Du",
            "p3d": {
              "x": -0.007,
              "y": 1.0013,
              "z": 0.6372
            }
          },
          {
            "elSymbol": "Du",
            "p3d": {
              "x": -0.0014,
              "y": 0.9902,
              "z": 2.5698
            }
          }
        ],
        "bonds": [
          {
            "atomIds": [
              1,
              2
            ],
            "bo": "TRIPLE"
          },
          {
            "atomIds": [
              0,
              1
            ],
            "bo": "SINGLE"
          },
          {
            "atomIds": [
              3,
              0
            ],
            "bo": "SINGLE"
          },
          {
            "atomIds": [
              4,
              1
            ],
            "bo": "SINGLE"
          }
        ]
      },
      "vertexId": 72,
      "buildingBlockId": 0,
      "buildingBlockType": "SCAFFOLD",
      "isRCV": false,
      "properties": {
        "ATTACHMENT_POINTS": "1#Xlig:0:SINGLE:-2.3339%-0.0087%0.8172,Xlig:0:SINGLE:2.3360%-0.0005%0.8290,scaff:0:SINGLE:-0.0095%0.0046%-1.7113 "
      },
      "uniquefyingPropertyKeys": [],
      "allowedMutationTypes": [
        "DELETE",
        "EXTEND",
        "CHANGEBRANCH",
        "CHANGELINK",
        "ADDLINK",
        "DELETELINK",
        "DELETECHAIN"
      ],
      "vertexType": "MolecularFragment"
    },
    {
      "lstAPs": [
        {
          "id": 161317,
          "atomPositionNumber": 0,
          "atomPositionNumberInMol": 5,
          "apClass": {
            "rule": "Xlig",
            "subClass": 1,
            "bndTyp": "SINGLE"
          },
          "dirVec": {
            "x": -0.1753,
            "y": 0.0948,
            "z": -0.4464
          }
        }
      ],
      "lstSymAPs": [],
      "mol": {
        "atoms": [
          {
            "elSymbol": "O",
            "p3d": {
              "x": -0.3534,
              "y": 2.1044,
              "z": -0.7339
            }
          },
          {
            "elSymbol": "C",
            "p3d": {
              "x": -0.5345,
              "y": 2.7646,
              "z": 0.4801
            }
          },
          {
            "elSymbol": "H",
            "p3d": {
              "x": -0.3728,
              "y": 3.8337,
              "z": 0.2724
            }
          },
          {
            "elSymbol": "H",
            "p3d": {
              "x": 0.1816,
              "y": 2.4161,
              "z": 1.2384
            }
          },
          {
            "elSymbol": "H",
            "p3d": {
              "x": -1.553,
              "y": 2.6149,
              "z": 0.8489
            }
          }
        ],
        "bonds": [
          {
            "atomIds": [
              1,
              2
            ],
            "bo": "SINGLE"
          },
          {
            "atomIds": [
              1,
              3
            ],
            "bo": "SINGLE"
          },
          {
            "atomIds": [
              1,
              4
            ],
            "bo": "SINGLE"
          },
          {
            "atomIds": [
              0,
              1
            ],
            "bo": "SINGLE"
          }
        ]
      },
      "vertexId": 80,
      "buildingBlockId": 64,
      "buildingBlockType": "FRAGMENT",
      "isRCV": false,
      "properties": {
        "ATTACHMENT_POINTS": "1#Xlig:1:SINGLE:-0.1753%0.0948%-0.4464 "
      },
      "uniquefyingPropertyKeys": [],
      "allowedMutationTypes": [
        "DELETE",
        "EXTEND",
        "CHANGEBRANCH",
        "CHANGELINK",
        "ADDLINK",
        "DELETELINK",
        "DELETECHAIN"
      ],
      "vertexType": "MolecularFragment"
    },
    {
      "lstAPs": [
        {
          "id": 161318,
          "atomPositionNumber": 0,
          "atomPositionNumberInMol": 10,
          "apClass": {
            "rule": "LPhosphineSubM",
            "subClass": 0,
            "bndTyp": "SINGLE"
          },
          "dirVec": {
            "x": -1.1846,
            "y": 9.2743,
            "z": 11.0929
          }
        },
        {
          "id": 161319,
          "atomPositionNumber": 0,
          "atomPositionNumberInMol": 10,
          "apClass": {
            "rule": "MPhosphine",
            "subClass": 1,
            "bndTyp": "SINGLE"
          },
          "dirVec": {
            "x": 0.7356,
            "y": 6.5277,
            "z": 10.7143
          }
        }
      ],
      "lstSymAPs": [],
      "mol": {
        "atoms": [
          {
            "elSymbol": "P",
            "p3d": {
              "x": 0.3777,
              "y": 8.7188,
              "z": 10.3566
            }
          },
          {
            "elSymbol": "C",
            "p3d": {
              "x": 0.3703,
              "y": 9.4545,
              "z": 8.6907
            }
          },
          {
            "elSymbol": "H",
            "p3d": {
              "x": -0.3722,
              "y": 8.9257,
              "z": 8.0745
            }
          },
          {
            "elSymbol": "H",
            "p3d": {
              "x": 0.0532,
              "y": 10.4926,
              "z": 8.7648
            }
          },
          {
            "elSymbol": "C",
            "p3d": {
              "x": 1.7376,
              "y": 9.3835,
              "z": 8.006
            }
          },
          {
            "elSymbol": "H",
            "p3d": {
              "x": 2.0419,
              "y": 8.3396,
              "z": 7.8978
            }
          },
          {
            "elSymbol": "H",
            "p3d": {
              "x": 1.6558,
              "y": 9.7991,
              "z": 7.0025
            }
          },
          {
            "elSymbol": "C",
            "p3d": {
              "x": 2.7947,
              "y": 10.1457,
              "z": 8.774
            }
          },
          {
            "elSymbol": "H",
            "p3d": {
              "x": 2.5157,
              "y": 11.1973,
              "z": 8.8416
            }
          },
          {
            "elSymbol": "H",
            "p3d": {
              "x": 3.7443,
              "y": 10.0811,
              "z": 8.2528
            }
          },
          {
            "elSymbol": "C",
            "p3d": {
              "x": 2.9937,
              "y": 9.6061,
              "z": 10.2064
            }
          },
          {
            "elSymbol": "H",
            "p3d": {
              "x": 3.7985,
              "y": 10.1828,
              "z": 10.6765
            }
          },
          {
            "elSymbol": "H",
            "p3d": {
              "x": 3.2993,
              "y": 8.5721,
              "z": 10.1385
            }
          },
          {
            "elSymbol": "C",
            "p3d": {
              "x": 1.7325,
              "y": 9.7184,
              "z": 11.0567
            }
          },
          {
            "elSymbol": "H",
            "p3d": {
              "x": 1.4263,
              "y": 10.7573,
              "z": 11.1135
            }
          },
          {
            "elSymbol": "H",
            "p3d": {
              "x": 1.9542,
              "y": 9.3693,
              "z": 12.0604
            }
          }
        ],
        "bonds": [
          {
            "atomIds": [
              1,
              0
            ],
            "bo": "SINGLE"
          },
          {
            "atomIds": [
              2,
              1
            ],
            "bo": "SINGLE"
          },
          {
            "atomIds": [
              3,
              1
            ],
            "bo": "SINGLE"
          },
          {
            "atomIds": [
              4,
              1
            ],
            "bo": "SINGLE"
          },
          {
            "atomIds": [
              5,
              4
            ],
            "bo": "SINGLE"
          },
          {
            "atomIds": [
              6,
              4
            ],
            "bo": "SINGLE"
          },
          {
            "atomIds": [
              7,
              4
            ],
            "bo": "SINGLE"
          },
          {
            "atomIds": [
              8,
              7
            ],
            "bo": "SINGLE"
          },
          {
            "atomIds": [
              9,
              7
            ],
            "bo": "SINGLE"
          },
          {
            "atomIds": [
              10,
              7
            ],
            "bo": "SINGLE"
          },
          {
            "atomIds": [
              10,
              13
            ],
            "bo": "SINGLE"
          },
          {
            "atomIds": [
              11,
              10
            ],
            "bo": "SINGLE"
          },
          {
            "atomIds": [
              12,
              10
            ],
            "bo": "SINGLE"
          },
          {
            "atomIds": [
              13,
              0
            ],
            "bo": "SINGLE"
          },
          {
            "atomIds": [
              14,
              13
            ],
            "bo": "SINGLE"
          },
          {
            "atomIds": [
              15,
              13
            ],
            "bo": "SINGLE"
          }
        ]
      },
      "vertexId": 105,
      "buildingBlockId": 42,
      "buildingBlockType": "FRAGMENT",
      "isRCV": false,
      "properties": {
        "ATTACHMENT_POINTS": "1#LPhosphineSubM:0:SINGLE:-1.1846%9.2743%11.0929,MPhosphine:1:SINGLE:0.7356%6.5277%10.7143 "
      },
      "uniquefyingPropertyKeys": [],
      "allowedMutationTypes": [
        "DELETE",
        "EXTEND",
        "CHANGEBRANCH",
        "CHANGELINK",
        "ADDLINK",
        "DELETELINK",
        "DELETECHAIN"
      ],
      "vertexType": "MolecularFragment"
    },
    {
      "lstAPs": [
        {
          "id": 161320,
          "atomPositionNumber": 0,
          "atomPositionNumberInMol": 33,
          "apClass": {
            "rule": "Xlig",
            "subClass": 1,
            "bndTyp": "SINGLE"
          },
          "dirVec": {
            "x": -0.0053,
            "y": -0.0027,
            "z": 0.63
          }
        }
      ],
      "lstSymAPs": [],
      "mol": {
        "atoms": [
          {
            "elSymbol": "Cl",
            "p3d": {
              "x": 2.3243,
              "y": -0.0063,
              "z": 0.8189
            }
          }
        ],
        "bonds": []
      },
      "vertexId": 88,
      "buildingBlockId": 66,
      "buildingBlockType": "FRAGMENT",
      "isRCV": false,
      "properties": {
        "ATTACHMENT_POINTS": "1#Xlig:1:SINGLE:-0.0053%-0.0027%0.6300 "
      },
      "uniquefyingPropertyKeys": [],
      "allowedMutationTypes": [
        "DELETE",
        "EXTEND",
        "CHANGEBRANCH",
        "CHANGELINK",
        "ADDLINK",
        "DELETELINK",
        "DELETECHAIN"
      ],
      "vertexType": "MolecularFragment"
    },
    {
      "lstAPs": [
        {
          "id": 161337,
          "atomPositionNumber": 1,
          "atomPositionNumberInMol": 27,
          "apClass": {
            "rule": "SubRS",
            "subClass": 1,
            "bndTyp": "SINGLE"
          },
          "dirVec": {
            "x": 0.2985,
            "y": 0.384,
            "z": -0.6258
          }
        }
      ],
      "lstSymAPs": [],
      "mol": {
        "atoms": [
          {
            "elSymbol": "C",
            "p3d": {
              "x": -1.0244,
              "y": -0.2225,
              "z": 1.3991
            }
          },
          {
            "elSymbol": "C",
            "p3d": {
              "x": 0.3973,
              "y": -0.042,
              "z": 0.8195
            }
          },
          {
            "elSymbol": "H",
            "p3d": {
              "x": -1.5635,
              "y": -0.9908,
              "z": 0.8263
            }
          },
          {
            "elSymbol": "H",
            "p3d": {
              "x": -0.941,
              "y": -0.535,
              "z": 2.446
            }
          },
          {
            "elSymbol": "H",
            "p3d": {
              "x": -1.5586,
              "y": 0.7335,
              "z": 1.3382
            }
          },
          {
            "elSymbol": "H",
            "p3d": {
              "x": 0.9335,
              "y": 0.7221,
              "z": 1.4011
            }
          },
          {
            "elSymbol": "H",
            "p3d": {
              "x": 0.927,
              "y": -1.0102,
              "z": 0.9001
            }
          }
        ],
        "bonds": [
          {
            "atomIds": [
              0,
              1
            ],
            "bo": "SINGLE"
          },
          {
            "atomIds": [
              0,
              2
            ],
            "bo": "SINGLE"
          },
          {
            "atomIds": [
              0,
              3
            ],
            "bo": "SINGLE"
          },
          {
            "atomIds": [
              0,
              4
            ],
            "bo": "SINGLE"
          },
          {
            "atomIds": [
              1,
              5
            ],
            "bo": "SINGLE"
          },
          {
            "atomIds": [
              1,
              6
            ],
            "bo": "SINGLE"
          }
        ]
      },
      "vertexId": 122913,
      "buildingBlockId": 31,
      "buildingBlockType": "FRAGMENT",
      "isRCV": false,
      "properties": {
        "ATTACHMENT_POINTS": "2#SubRS:1:SINGLE:0.2985%0.3840%-0.6258 "
      },
      "uniquefyingPropertyKeys": [],
      "allowedMutationTypes": [
        "DELETE",
        "EXTEND",
        "CHANGEBRANCH",
        "CHANGELINK",
        "ADDLINK",
        "DELETELINK",
        "DELETECHAIN"
      ],
      "vertexType": "MolecularFragment"
    }
  ],
  "gEdges": [
    {
      "srcAPID": 161314,
      "trgAPID": 161317,
      "bondType": "SINGLE"
    },
    {
      "srcAPID": 161316,
      "trgAPID": 161319,
      "bondType": "SINGLE"
    },
    {
      "srcAPID": 161315,
      "trgAPID": 161320,
      "bondType": "SINGLE"
    },
    {
      "srcAPID": 161318,
      "trgAPID": 161337,
      "bondType": "SINGLE"
    }
  ],
  "gRings": [],
  "symVertices": []
}

> <SMILES>
[Pt](C#O)(OC([H])([H])[H])([P]1(C([H])([H])C([H])([H])C([H])([H])C(C1([H])[H])([H])[H])C(C([H])([H])[H])([H])[H])Cl

$$$$
