M00017995
  CDK     04222215073D

 42 45  0  0  0  0  0  0  0  0999 V2000
   -2.7615   -0.1961   -0.2851 Pt  0  0  0  0  0  0  0  0  0  0  0  0
   -4.7046   -0.1864   -0.5578 C   0  0  0  0  0  0  0  0  0  0  0  0
   -5.8314   -0.1651   -0.7227 O   0  0  0  0  0  0  0  0  0  0  0  0
   -2.6291    1.6184   -1.1068 C   0  0  0  0  0  0  0  0  0  0  0  0
   -2.5561    2.6661   -1.5857 N   0  0  0  0  0  0  0  0  0  0  0  0
    0.5099   -1.3543    2.0346 C   0  0  0  0  0  0  0  0  0  0  0  0
   -0.0889   -2.3916    2.7564 C   0  0  0  0  0  0  0  0  0  0  0  0
   -0.7454   -3.1076    2.2510 H   0  0  0  0  0  0  0  0  0  0  0  0
    0.1819   -2.4930    4.1218 C   0  0  0  0  0  0  0  0  0  0  0  0
   -0.2763   -3.2939    4.7046 H   0  0  0  0  0  0  0  0  0  0  0  0
    1.0321   -1.5684    4.7399 C   0  0  0  0  0  0  0  0  0  0  0  0
    1.2310   -1.6468    5.8090 H   0  0  0  0  0  0  0  0  0  0  0  0
    1.6275   -0.5455    3.9985 C   0  0  0  0  0  0  0  0  0  0  0  0
    2.2834    0.1716    4.4947 H   0  0  0  0  0  0  0  0  0  0  0  0
    1.3869   -0.4197    2.6189 C   0  0  0  0  0  0  0  0  0  0  0  0
    2.0302    0.6526    1.8451 C   0  0  0  0  0  0  0  0  0  0  0  0
    3.3907    0.9603    2.0149 C   0  0  0  0  0  0  0  0  0  0  0  0
    3.9907    0.3720    2.7112 H   0  0  0  0  0  0  0  0  0  0  0  0
    3.9824    2.0024    1.2960 C   0  0  0  0  0  0  0  0  0  0  0  0
    5.0403    2.2238    1.4408 H   0  0  0  0  0  0  0  0  0  0  0  0
    3.2319    2.7639    0.3924 C   0  0  0  0  0  0  0  0  0  0  0  0
    3.7011    3.5810   -0.1568 H   0  0  0  0  0  0  0  0  0  0  0  0
    1.8805    2.4772    0.1871 C   0  0  0  0  0  0  0  0  0  0  0  0
    1.2688    3.0558   -0.5072 H   0  0  0  0  0  0  0  0  0  0  0  0
    1.3147    1.4259    0.9119 C   0  0  0  0  0  0  0  0  0  0  0  0
    0.2983   -1.3984    0.6449 O   0  0  0  0  0  0  0  0  0  0  0  0
   -0.0760    1.2428    0.7537 O   0  0  0  0  0  0  0  0  0  0  0  0
   -0.5332   -0.1342   -0.0453 P   0  0  0  0  0  0  0  0  0  0  0  0
    0.3329   -0.1582   -1.4659 O   0  0  0  0  0  0  0  0  0  0  0  0
   -0.4339   -0.1373   -2.6521 C   0  0  0  0  0  0  0  0  0  0  0  0
   -1.6730   -0.0599   -5.1158 C   0  0  0  0  0  0  0  0  0  0  0  0
   -1.5165   -0.9969   -2.8743 C   0  0  0  0  0  0  0  0  0  0  0  0
    0.0510    0.7541   -3.6160 C   0  0  0  0  0  0  0  0  0  0  0  0
   -0.5844    0.7829   -4.8593 C   0  0  0  0  0  0  0  0  0  0  0  0
   -2.1312   -0.9423   -4.1324 C   0  0  0  0  0  0  0  0  0  0  0  0
   -1.8626   -1.7283   -2.1358 H   0  0  0  0  0  0  0  0  0  0  0  0
    0.8981    1.3994   -3.3886 H   0  0  0  0  0  0  0  0  0  0  0  0
   -0.2331    1.4715   -5.6293 H   0  0  0  0  0  0  0  0  0  0  0  0
   -2.9736   -1.6023   -4.3444 H   0  0  0  0  0  0  0  0  0  0  0  0
   -2.1662   -0.0262   -6.0868 H   0  0  0  0  0  0  0  0  0  0  0  0
   -2.8989   -2.0105    0.5325 C   0  0  0  0  0  0  0  0  0  0  0  0
   -2.9887   -3.0588    1.0081 N   0  0  0  0  0  0  0  0  0  0  0  0
  2  3  3  0  0  0  0
  1  2  1  0  0  0  0
  4  5  3  0  0  0  0
  1  4  1  0  0  0  0
  6  7  2  0  0  0  0
  7  8  1  0  0  0  0
  9  7  1  0  0  0  0
 10  9  1  0  0  0  0
 11  9  2  0  0  0  0
 12 11  1  0  0  0  0
 13 11  1  0  0  0  0
 13 15  2  0  0  0  0
 14 13  1  0  0  0  0
 15  6  1  0  0  0  0
 16 15  1  0  0  0  0
 17 16  2  0  0  0  0
 18 17  1  0  0  0  0
 19 17  1  0  0  0  0
 20 19  1  0  0  0  0
 21 19  2  0  0  0  0
 22 21  1  0  0  0  0
 23 21  1  0  0  0  0
 23 25  2  0  0  0  0
 24 23  1  0  0  0  0
 25 16  1  0  0  0  0
 26  6  1  0  0  0  0
 26 28  1  0  0  0  0
 27 25  1  0  0  0  0
 27 28  1  0  0  0  0
  1 28  1  0  0  0  0
 28 29  1  0  0  0  0
 30 33  1  0  0  0  0
 33 34  2  0  0  0  0
 31 34  1  0  0  0  0
 31 35  2  0  0  0  0
 32 35  1  0  0  0  0
 30 32  2  0  0  0  0
 34 38  1  0  0  0  0
 35 39  1  0  0  0  0
 31 40  1  0  0  0  0
 32 36  1  0  0  0  0
 33 37  1  0  0  0  0
 29 30  1  0  0  0  0
 41 42  3  0  0  0  0
  1 41  1  0  0  0  0
M  END
> <PM6_ENERGY>
-72.965

> <UID>
RAIWLCGGCWXLOC-RQJQFRIVNA-N

> <FITNESS>
1.139

> <GCODE>
19356

> <GraphENC>
19356 72_1_0,81_66_1,110_49_1,87_66_1,210441_52_1,401713_36_1, 72_0_81_0_SINGLE_Xlig:0_Xlig:1,72_2_110_1_SINGLE_scaff:0_MPhosphite:1,72_1_87_0_SINGLE_Xlig:0_Xlig:1,110_0_210441_0_SINGLE_LPhosphiteSubO:0_LPhosphiteSubO:1,210441_1_401713_0_SINGLE_OPhosphiteSub:1_SubArS:1, 

> <GraphJson>
{
  "graphId": 19356,
  "gVertices": [
    {
      "lstAPs": [
        {
          "id": 520225,
          "atomPositionNumber": 0,
          "atomPositionNumberInMol": 0,
          "apClass": {
            "rule": "Xlig",
            "subClass": 0,
            "bndTyp": "SINGLE"
          },
          "dirVec": {
            "x": -2.3339,
            "y": -0.0087,
            "z": 0.8172
          }
        },
        {
          "id": 520226,
          "atomPositionNumber": 0,
          "atomPositionNumberInMol": 0,
          "apClass": {
            "rule": "Xlig",
            "subClass": 0,
            "bndTyp": "SINGLE"
          },
          "dirVec": {
            "x": 2.336,
            "y": -5.0E-4,
            "z": 0.829
          }
        },
        {
          "id": 520227,
          "atomPositionNumber": 0,
          "atomPositionNumberInMol": 0,
          "apClass": {
            "rule": "scaff",
            "subClass": 0,
            "bndTyp": "SINGLE"
          },
          "dirVec": {
            "x": -0.0095,
            "y": 0.0046,
            "z": -1.7113
          }
        }
      ],
      "lstSymAPs": [
        {
          "symIds": [
            0,
            1
          ]
        }
      ],
      "mol": {
        "atoms": [
          {
            "elSymbol": "Pt",
            "p3d": {
              "x": -0.0098,
              "y": 0.0049,
              "z": 0.6289
            }
          },
          {
            "elSymbol": "C",
            "p3d": {
              "x": -6.0E-4,
              "y": 0.0016,
              "z": 2.5609
            }
          },
          {
            "elSymbol": "O",
            "p3d": {
              "x": 0.0025,
              "y": -0.0041,
              "z": 3.6974
            }
          },
          {
            "elSymbol": "Du",
            "p3d": {
              "x": -0.007,
              "y": 1.0013,
              "z": 0.6372
            }
          },
          {
            "elSymbol": "Du",
            "p3d": {
              "x": -0.0014,
              "y": 0.9902,
              "z": 2.5698
            }
          }
        ],
        "bonds": [
          {
            "atomIds": [
              1,
              2
            ],
            "bo": "TRIPLE"
          },
          {
            "atomIds": [
              0,
              1
            ],
            "bo": "SINGLE"
          },
          {
            "atomIds": [
              3,
              0
            ],
            "bo": "SINGLE"
          },
          {
            "atomIds": [
              4,
              1
            ],
            "bo": "SINGLE"
          }
        ]
      },
      "vertexId": 72,
      "buildingBlockId": 0,
      "buildingBlockType": "SCAFFOLD",
      "isRCV": false,
      "properties": {
        "ATTACHMENT_POINTS": "1#Xlig:0:SINGLE:-2.3339%-0.0087%0.8172,Xlig:0:SINGLE:2.3360%-0.0005%0.8290,scaff:0:SINGLE:-0.0095%0.0046%-1.7113 "
      },
      "uniquefyingPropertyKeys": [],
      "allowedMutationTypes": [
        "DELETE",
        "EXTEND",
        "CHANGEBRANCH",
        "CHANGELINK",
        "ADDLINK",
        "DELETELINK",
        "DELETECHAIN"
      ],
      "vertexType": "MolecularFragment"
    },
    {
      "lstAPs": [
        {
          "id": 520228,
          "atomPositionNumber": 0,
          "atomPositionNumberInMol": 5,
          "apClass": {
            "rule": "Xlig",
            "subClass": 1,
            "bndTyp": "SINGLE"
          },
          "dirVec": {
            "x": 0.0192,
            "y": -0.0048,
            "z": -0.5645
          }
        }
      ],
      "lstSymAPs": [],
      "mol": {
        "atoms": [
          {
            "elSymbol": "C",
            "p3d": {
              "x": -1.967,
              "y": -0.0075,
              "z": -0.4937
            }
          },
          {
            "elSymbol": "N",
            "p3d": {
              "x": -3.1263,
              "y": -0.0054,
              "z": -0.4354
            }
          },
          {
            "elSymbol": "Du",
            "p3d": {
              "x": -1.9744,
              "y": 0.9926,
              "z": -0.5036
            }
          }
        ],
        "bonds": [
          {
            "atomIds": [
              0,
              1
            ],
            "bo": "TRIPLE"
          },
          {
            "atomIds": [
              2,
              0
            ],
            "bo": "SINGLE"
          }
        ]
      },
      "vertexId": 81,
      "buildingBlockId": 65,
      "buildingBlockType": "FRAGMENT",
      "isRCV": false,
      "properties": {
        "ATTACHMENT_POINTS": "1#Xlig:1:SINGLE:0.0192%-0.0048%-0.5645 "
      },
      "uniquefyingPropertyKeys": [],
      "allowedMutationTypes": [
        "DELETE",
        "EXTEND",
        "CHANGEBRANCH",
        "CHANGELINK",
        "ADDLINK",
        "DELETELINK",
        "DELETECHAIN"
      ],
      "vertexType": "MolecularFragment"
    },
    {
      "lstAPs": [
        {
          "id": 520229,
          "atomPositionNumber": 22,
          "atomPositionNumberInMol": 30,
          "apClass": {
            "rule": "LPhosphiteSubO",
            "subClass": 0,
            "bndTyp": "SINGLE"
          },
          "dirVec": {
            "x": 6.6821,
            "y": 5.3677,
            "z": 17.7965
          }
        },
        {
          "id": 520230,
          "atomPositionNumber": 22,
          "atomPositionNumberInMol": 30,
          "apClass": {
            "rule": "MPhosphite",
            "subClass": 1,
            "bndTyp": "SINGLE"
          },
          "dirVec": {
            "x": 5.2115,
            "y": 8.219,
            "z": 18.2686
          }
        }
      ],
      "lstSymAPs": [],
      "mol": {
        "atoms": [
          {
            "elSymbol": "C",
            "p3d": {
              "x": 8.868,
              "y": 7.7904,
              "z": 19.5309
            }
          },
          {
            "elSymbol": "C",
            "p3d": {
              "x": 8.6758,
              "y": 8.541,
              "z": 20.6816
            }
          },
          {
            "elSymbol": "H",
            "p3d": {
              "x": 7.7959,
              "y": 8.3781,
              "z": 21.2982
            }
          },
          {
            "elSymbol": "C",
            "p3d": {
              "x": 9.6226,
              "y": 9.508,
              "z": 21.0124
            }
          },
          {
            "elSymbol": "H",
            "p3d": {
              "x": 9.4801,
              "y": 10.1014,
              "z": 21.9119
            }
          },
          {
            "elSymbol": "C",
            "p3d": {
              "x": 10.6714,
              "y": 9.7257,
              "z": 20.2615
            }
          },
          {
            "elSymbol": "H",
            "p3d": {
              "x": 11.369,
              "y": 10.5105,
              "z": 20.5337
            }
          },
          {
            "elSymbol": "C",
            "p3d": {
              "x": 10.8922,
              "y": 8.9513,
              "z": 19.0933
            }
          },
          {
            "elSymbol": "H",
            "p3d": {
              "x": 11.7788,
              "y": 9.1364,
              "z": 18.5012
            }
          },
          {
            "elSymbol": "C",
            "p3d": {
              "x": 9.9896,
              "y": 7.9623,
              "z": 18.7237
            }
          },
          {
            "elSymbol": "C",
            "p3d": {
              "x": 10.1857,
              "y": 7.1333,
              "z": 17.5283
            }
          },
          {
            "elSymbol": "C",
            "p3d": {
              "x": 11.42,
              "y": 6.6249,
              "z": 17.1632
            }
          },
          {
            "elSymbol": "H",
            "p3d": {
              "x": 12.2741,
              "y": 6.8237,
              "z": 17.826
            }
          },
          {
            "elSymbol": "C",
            "p3d": {
              "x": 11.6652,
              "y": 5.8687,
              "z": 16.0429
            }
          },
          {
            "elSymbol": "H",
            "p3d": {
              "x": 12.6727,
              "y": 5.5494,
              "z": 15.7739
            }
          },
          {
            "elSymbol": "C",
            "p3d": {
              "x": 10.5758,
              "y": 5.5431,
              "z": 15.2313
            }
          },
          {
            "elSymbol": "H",
            "p3d": {
              "x": 10.7121,
              "y": 4.8845,
              "z": 14.3736
            }
          },
          {
            "elSymbol": "C",
            "p3d": {
              "x": 9.3214,
              "y": 6.0404,
              "z": 15.5538
            }
          },
          {
            "elSymbol": "H",
            "p3d": {
              "x": 8.4837,
              "y": 5.8344,
              "z": 14.9027
            }
          },
          {
            "elSymbol": "C",
            "p3d": {
              "x": 9.1581,
              "y": 6.8298,
              "z": 16.6773
            }
          },
          {
            "elSymbol": "O",
            "p3d": {
              "x": 7.9608,
              "y": 6.7634,
              "z": 19.2501
            }
          },
          {
            "elSymbol": "O",
            "p3d": {
              "x": 7.8839,
              "y": 7.3746,
              "z": 16.893
            }
          },
          {
            "elSymbol": "P",
            "p3d": {
              "x": 6.9287,
              "y": 6.8843,
              "z": 18.0447
            }
          }
        ],
        "bonds": [
          {
            "atomIds": [
              0,
              1
            ],
            "bo": "DOUBLE"
          },
          {
            "atomIds": [
              1,
              2
            ],
            "bo": "SINGLE"
          },
          {
            "atomIds": [
              3,
              1
            ],
            "bo": "SINGLE"
          },
          {
            "atomIds": [
              4,
              3
            ],
            "bo": "SINGLE"
          },
          {
            "atomIds": [
              5,
              3
            ],
            "bo": "DOUBLE"
          },
          {
            "atomIds": [
              6,
              5
            ],
            "bo": "SINGLE"
          },
          {
            "atomIds": [
              7,
              5
            ],
            "bo": "SINGLE"
          },
          {
            "atomIds": [
              7,
              9
            ],
            "bo": "DOUBLE"
          },
          {
            "atomIds": [
              8,
              7
            ],
            "bo": "SINGLE"
          },
          {
            "atomIds": [
              9,
              0
            ],
            "bo": "SINGLE"
          },
          {
            "atomIds": [
              10,
              9
            ],
            "bo": "SINGLE"
          },
          {
            "atomIds": [
              11,
              10
            ],
            "bo": "DOUBLE"
          },
          {
            "atomIds": [
              12,
              11
            ],
            "bo": "SINGLE"
          },
          {
            "atomIds": [
              13,
              11
            ],
            "bo": "SINGLE"
          },
          {
            "atomIds": [
              14,
              13
            ],
            "bo": "SINGLE"
          },
          {
            "atomIds": [
              15,
              13
            ],
            "bo": "DOUBLE"
          },
          {
            "atomIds": [
              16,
              15
            ],
            "bo": "SINGLE"
          },
          {
            "atomIds": [
              17,
              15
            ],
            "bo": "SINGLE"
          },
          {
            "atomIds": [
              17,
              19
            ],
            "bo": "DOUBLE"
          },
          {
            "atomIds": [
              18,
              17
            ],
            "bo": "SINGLE"
          },
          {
            "atomIds": [
              19,
              10
            ],
            "bo": "SINGLE"
          },
          {
            "atomIds": [
              20,
              0
            ],
            "bo": "SINGLE"
          },
          {
            "atomIds": [
              20,
              22
            ],
            "bo": "SINGLE"
          },
          {
            "atomIds": [
              21,
              19
            ],
            "bo": "SINGLE"
          },
          {
            "atomIds": [
              21,
              22
            ],
            "bo": "SINGLE"
          }
        ]
      },
      "vertexId": 110,
      "buildingBlockId": 48,
      "buildingBlockType": "FRAGMENT",
      "isRCV": false,
      "properties": {
        "ATTACHMENT_POINTS": "23#LPhosphiteSubO:0:SINGLE:6.6821%5.3677%17.7965,MPhosphite:1:SINGLE:5.2115%8.2190%18.2686 "
      },
      "uniquefyingPropertyKeys": [],
      "allowedMutationTypes": [
        "DELETE",
        "EXTEND",
        "CHANGEBRANCH",
        "CHANGELINK",
        "ADDLINK",
        "DELETELINK",
        "DELETECHAIN"
      ],
      "vertexType": "MolecularFragment"
    },
    {
      "lstAPs": [
        {
          "id": 520231,
          "atomPositionNumber": 0,
          "atomPositionNumberInMol": 43,
          "apClass": {
            "rule": "Xlig",
            "subClass": 1,
            "bndTyp": "SINGLE"
          },
          "dirVec": {
            "x": 0.0192,
            "y": -0.0048,
            "z": -0.5645
          }
        }
      ],
      "lstSymAPs": [],
      "mol": {
        "atoms": [
          {
            "elSymbol": "C",
            "p3d": {
              "x": -1.967,
              "y": -0.0075,
              "z": -0.4937
            }
          },
          {
            "elSymbol": "N",
            "p3d": {
              "x": -3.1263,
              "y": -0.0054,
              "z": -0.4354
            }
          },
          {
            "elSymbol": "Du",
            "p3d": {
              "x": -1.9744,
              "y": 0.9926,
              "z": -0.5036
            }
          }
        ],
        "bonds": [
          {
            "atomIds": [
              0,
              1
            ],
            "bo": "TRIPLE"
          },
          {
            "atomIds": [
              2,
              0
            ],
            "bo": "SINGLE"
          }
        ]
      },
      "vertexId": 87,
      "buildingBlockId": 65,
      "buildingBlockType": "FRAGMENT",
      "isRCV": false,
      "properties": {
        "ATTACHMENT_POINTS": "1#Xlig:1:SINGLE:0.0192%-0.0048%-0.5645 "
      },
      "uniquefyingPropertyKeys": [],
      "allowedMutationTypes": [
        "DELETE",
        "EXTEND",
        "CHANGEBRANCH",
        "CHANGELINK",
        "ADDLINK",
        "DELETELINK",
        "DELETECHAIN"
      ],
      "vertexType": "MolecularFragment"
    },
    {
      "lstAPs": [
        {
          "id": 520232,
          "atomPositionNumber": 0,
          "atomPositionNumberInMol": 31,
          "apClass": {
            "rule": "LPhosphiteSubO",
            "subClass": 1,
            "bndTyp": "SINGLE"
          },
          "dirVec": {
            "x": 0.7035,
            "y": 2.9119,
            "z": 2.8175
          }
        },
        {
          "id": 520233,
          "atomPositionNumber": 0,
          "atomPositionNumberInMol": 31,
          "apClass": {
            "rule": "OPhosphiteSub",
            "subClass": 1,
            "bndTyp": "SINGLE"
          },
          "dirVec": {
            "x": 0.0564,
            "y": 5.2897,
            "z": 1.9394
          }
        }
      ],
      "lstSymAPs": [],
      "mol": {
        "atoms": [
          {
            "elSymbol": "O",
            "p3d": {
              "x": -0.1418,
              "y": 4.2412,
              "z": 2.9314
            }
          }
        ],
        "bonds": []
      },
      "vertexId": 210441,
      "buildingBlockId": 51,
      "buildingBlockType": "FRAGMENT",
      "isRCV": false,
      "properties": {
        "ATTACHMENT_POINTS": "1#LPhosphiteSubO:1:SINGLE:0.7035%2.9119%2.8175,OPhosphiteSub:1:SINGLE:0.0564%5.2897%1.9394 "
      },
      "uniquefyingPropertyKeys": [],
      "allowedMutationTypes": [
        "DELETE",
        "EXTEND",
        "CHANGEBRANCH",
        "CHANGELINK",
        "ADDLINK",
        "DELETELINK",
        "DELETECHAIN"
      ],
      "vertexType": "MolecularFragment"
    },
    {
      "lstAPs": [
        {
          "id": 520264,
          "atomPositionNumber": 0,
          "atomPositionNumberInMol": 32,
          "apClass": {
            "rule": "SubArS",
            "subClass": 1,
            "bndTyp": "SINGLE"
          },
          "dirVec": {
            "x": 0.2973,
            "y": 0.3873,
            "z": -0.6389
          }
        }
      ],
      "lstSymAPs": [],
      "mol": {
        "atoms": [
          {
            "elSymbol": "C",
            "p3d": {
              "x": 1.6995,
              "y": 0.5593,
              "z": -1.2083
            }
          },
          {
            "elSymbol": "C",
            "p3d": {
              "x": 4.2563,
              "y": 0.8754,
              "z": -2.2592
            }
          },
          {
            "elSymbol": "C",
            "p3d": {
              "x": 2.3334,
              "y": 1.79,
              "z": -1.1338
            }
          },
          {
            "elSymbol": "C",
            "p3d": {
              "x": 2.3422,
              "y": -0.5107,
              "z": -1.8125
            }
          },
          {
            "elSymbol": "C",
            "p3d": {
              "x": 3.612,
              "y": -0.3527,
              "z": -2.3321
            }
          },
          {
            "elSymbol": "C",
            "p3d": {
              "x": 3.6062,
              "y": 1.9513,
              "z": -1.6526
            }
          },
          {
            "elSymbol": "H",
            "p3d": {
              "x": 1.833,
              "y": 2.6461,
              "z": -0.6488
            }
          },
          {
            "elSymbol": "H",
            "p3d": {
              "x": 1.8361,
              "y": -1.4773,
              "z": -1.887
            }
          },
          {
            "elSymbol": "H",
            "p3d": {
              "x": 4.115,
              "y": -1.2043,
              "z": -2.8152
            }
          },
          {
            "elSymbol": "H",
            "p3d": {
              "x": 4.1097,
              "y": 2.9214,
              "z": -1.5842
            }
          },
          {
            "elSymbol": "H",
            "p3d": {
              "x": 5.2498,
              "y": 0.9926,
              "z": -2.665
            }
          }
        ],
        "bonds": [
          {
            "atomIds": [
              0,
              3
            ],
            "bo": "SINGLE"
          },
          {
            "atomIds": [
              3,
              4
            ],
            "bo": "DOUBLE"
          },
          {
            "atomIds": [
              1,
              4
            ],
            "bo": "SINGLE"
          },
          {
            "atomIds": [
              1,
              5
            ],
            "bo": "DOUBLE"
          },
          {
            "atomIds": [
              2,
              5
            ],
            "bo": "SINGLE"
          },
          {
            "atomIds": [
              0,
              2
            ],
            "bo": "DOUBLE"
          },
          {
            "atomIds": [
              4,
              8
            ],
            "bo": "SINGLE"
          },
          {
            "atomIds": [
              5,
              9
            ],
            "bo": "SINGLE"
          },
          {
            "atomIds": [
              1,
              10
            ],
            "bo": "SINGLE"
          },
          {
            "atomIds": [
              2,
              6
            ],
            "bo": "SINGLE"
          },
          {
            "atomIds": [
              3,
              7
            ],
            "bo": "SINGLE"
          }
        ]
      },
      "vertexId": 401713,
      "buildingBlockId": 35,
      "buildingBlockType": "FRAGMENT",
      "isRCV": false,
      "properties": {
        "ATTACHMENT_POINTS": "1#SubArS:1:SINGLE:0.2973%0.3873%-0.6389 "
      },
      "uniquefyingPropertyKeys": [],
      "allowedMutationTypes": [
        "DELETE",
        "EXTEND",
        "CHANGEBRANCH",
        "CHANGELINK",
        "ADDLINK",
        "DELETELINK",
        "DELETECHAIN"
      ],
      "vertexType": "MolecularFragment"
    }
  ],
  "gEdges": [
    {
      "srcAPID": 520225,
      "trgAPID": 520228,
      "bondType": "SINGLE"
    },
    {
      "srcAPID": 520227,
      "trgAPID": 520230,
      "bondType": "SINGLE"
    },
    {
      "srcAPID": 520226,
      "trgAPID": 520231,
      "bondType": "SINGLE"
    },
    {
      "srcAPID": 520229,
      "trgAPID": 520232,
      "bondType": "SINGLE"
    },
    {
      "srcAPID": 520233,
      "trgAPID": 520264,
      "bondType": "SINGLE"
    }
  ],
  "gRings": [],
  "symVertices": []
}

> <SMILES>
[Pt](C#O)(C#N)([P]1(OC2=C([H])C([H])=C([H])C(=C2C3=C([H])C([H])=C([H])C(=C3O1)[H])[H])OC=4C(=C(C(=C(C4[H])[H])[H])[H])[H])C#N

$$$$
