M00006804
  CDK     04222211103D

 56 61  0  0  0  0  0  0  0  0999 V2000
   -3.0366    0.2893   -0.6943 Pt  0  0  0  0  0  0  0  0  0  0  0  0
   -4.9611    0.0460   -0.9146 C   0  0  0  0  0  0  0  0  0  0  0  0
   -6.0776   -0.1487   -1.0459 O   0  0  0  0  0  0  0  0  0  0  0  0
   -3.1532    2.1990   -0.1147 C   0  0  0  0  0  0  0  0  0  0  0  0
   -3.2597    3.3039    0.2107 N   0  0  0  0  0  0  0  0  0  0  0  0
   -0.7639    0.4514   -0.4623 P   0  0  0  0  0  0  0  0  0  0  0  0
   -0.0869   -2.1507   -1.4366 N   0  0  0  0  0  0  0  0  0  0  0  0
   -0.4810    2.3637    1.6613 N   0  0  0  0  0  0  0  0  0  0  0  0
    0.0949   -1.1626   -0.4646 C   0  0  0  0  0  0  0  0  0  0  0  0
    1.0265   -1.5678    0.4866 C   0  0  0  0  0  0  0  0  0  0  0  0
    1.4728   -2.8760    0.0888 C   0  0  0  0  0  0  0  0  0  0  0  0
    2.3991   -3.8013    0.6203 C   0  0  0  0  0  0  0  0  0  0  0  0
    2.9411   -3.5564    1.5309 H   0  0  0  0  0  0  0  0  0  0  0  0
    2.5929   -4.9988   -0.0343 C   0  0  0  0  0  0  0  0  0  0  0  0
    3.3004   -5.7296    0.3528 H   0  0  0  0  0  0  0  0  0  0  0  0
    1.8787   -5.3180   -1.2277 C   0  0  0  0  0  0  0  0  0  0  0  0
    2.0714   -6.2811   -1.7012 H   0  0  0  0  0  0  0  0  0  0  0  0
    0.9660   -4.4474   -1.7808 C   0  0  0  0  0  0  0  0  0  0  0  0
    0.4152   -4.6849   -2.6857 H   0  0  0  0  0  0  0  0  0  0  0  0
    0.7626   -3.2124   -1.1164 C   0  0  0  0  0  0  0  0  0  0  0  0
    1.4779   -0.8286    1.6941 C   0  0  0  0  0  0  0  0  0  0  0  0
    1.3115   -1.4703    2.5955 H   0  0  0  0  0  0  0  0  0  0  0  0
    2.5849   -0.6821    1.6446 H   0  0  0  0  0  0  0  0  0  0  0  0
   -0.1291    1.1241    1.1136 C   0  0  0  0  0  0  0  0  0  0  0  0
    0.8203    0.4873    1.9109 C   0  0  0  0  0  0  0  0  0  0  0  0
    1.0755    1.3624    3.0234 C   0  0  0  0  0  0  0  0  0  0  0  0
    1.9170    1.2902    4.1571 C   0  0  0  0  0  0  0  0  0  0  0  0
    2.5446    0.4144    4.3055 H   0  0  0  0  0  0  0  0  0  0  0  0
    1.9184    2.3387    5.0513 C   0  0  0  0  0  0  0  0  0  0  0  0
    2.5557    2.3098    5.9331 H   0  0  0  0  0  0  0  0  0  0  0  0
    1.0906    3.4851    4.8551 C   0  0  0  0  0  0  0  0  0  0  0  0
    1.1317    4.2831    5.5973 H   0  0  0  0  0  0  0  0  0  0  0  0
    0.2553    3.5979    3.7664 C   0  0  0  0  0  0  0  0  0  0  0  0
   -0.3815    4.4643    3.6113 H   0  0  0  0  0  0  0  0  0  0  0  0
    0.2489    2.5241    2.8411 C   0  0  0  0  0  0  0  0  0  0  0  0
   -1.1418    3.0299    1.2859 H   0  0  0  0  0  0  0  0  0  0  0  0
   -0.7254   -2.1168   -2.2193 H   0  0  0  0  0  0  0  0  0  0  0  0
    0.0019    1.4500   -1.8194 C   0  0  0  0  0  0  0  0  0  0  0  0
    1.3169    2.9307   -3.7793 C   0  0  0  0  0  0  0  0  0  0  0  0
   -0.6735    1.7531   -3.0087 C   0  0  0  0  0  0  0  0  0  0  0  0
    1.3195    1.8740   -1.6057 C   0  0  0  0  0  0  0  0  0  0  0  0
    1.9789    2.6164   -2.5855 C   0  0  0  0  0  0  0  0  0  0  0  0
    0.0076    2.5037   -3.9894 C   0  0  0  0  0  0  0  0  0  0  0  0
    1.8557    1.6399   -0.6796 H   0  0  0  0  0  0  0  0  0  0  0  0
    3.0019    2.9510   -2.4238 H   0  0  0  0  0  0  0  0  0  0  0  0
   -0.4980    2.7565   -4.9209 H   0  0  0  0  0  0  0  0  0  0  0  0
    1.8292    3.5127   -4.5469 H   0  0  0  0  0  0  0  0  0  0  0  0
   -2.0801    1.3338   -3.2912 C   0  0  0  0  0  0  0  0  0  0  0  0
   -2.8041    1.8744   -2.6475 H   0  0  0  0  0  0  0  0  0  0  0  0
   -2.2474    0.2476   -3.1715 H   0  0  0  0  0  0  0  0  0  0  0  0
   -2.3823    1.5615   -4.3262 H   0  0  0  0  0  0  0  0  0  0  0  0
   -3.2075   -1.9234   -1.4280 S   0  0  0  0  0  0  0  0  0  0  0  0
   -3.0430   -2.7227    0.1939 C   0  0  0  0  0  0  0  0  0  0  0  0
   -3.7571   -3.5517    0.2625 H   0  0  0  0  0  0  0  0  0  0  0  0
   -3.2446   -2.0146    1.0062 H   0  0  0  0  0  0  0  0  0  0  0  0
   -2.0300   -3.1241    0.3219 H   0  0  0  0  0  0  0  0  0  0  0  0
  2  3  3  0  0  0  0
  1  2  1  0  0  0  0
  4  5  3  0  0  0  0
  1  4  1  0  0  0  0
  7  9  1  0  0  0  0
  8 24  1  0  0  0  0
  9  6  1  0  0  0  0
 10  9  2  0  0  0  0
 11 10  1  0  0  0  0
 11 20  2  0  0  0  0
 12 11  1  0  0  0  0
 13 12  1  0  0  0  0
 14 12  2  0  0  0  0
 15 14  1  0  0  0  0
 16 14  1  0  0  0  0
 17 16  1  0  0  0  0
 18 16  2  0  0  0  0
 18 20  1  0  0  0  0
 19 18  1  0  0  0  0
 20  7  1  0  0  0  0
 21 10  1  0  0  0  0
 22 21  1  0  0  0  0
 23 21  1  0  0  0  0
 24  6  1  0  0  0  0
 24 25  2  0  0  0  0
 25 21  1  0  0  0  0
 26 25  1  0  0  0  0
 26 35  2  0  0  0  0
 27 26  1  0  0  0  0
 28 27  1  0  0  0  0
 29 27  2  0  0  0  0
 30 29  1  0  0  0  0
 31 29  1  0  0  0  0
 32 31  1  0  0  0  0
 33 31  2  0  0  0  0
 33 35  1  0  0  0  0
 34 33  1  0  0  0  0
 35  8  1  0  0  0  0
 36  8  1  0  0  0  0
 37  7  1  0  0  0  0
  1  6  1  0  0  0  0
 38 41  1  0  0  0  0
 41 42  2  0  0  0  0
 39 42  1  0  0  0  0
 39 43  2  0  0  0  0
 40 43  1  0  0  0  0
 38 40  2  0  0  0  0
 42 45  1  0  0  0  0
 43 46  1  0  0  0  0
 39 47  1  0  0  0  0
 41 44  1  0  0  0  0
 48 49  1  0  0  0  0
 48 50  1  0  0  0  0
 48 51  1  0  0  0  0
 40 48  1  0  0  0  0
  6 38  1  0  0  0  0
 53 54  1  0  0  0  0
 53 55  1  0  0  0  0
 53 56  1  0  0  0  0
 52 53  1  0  0  0  0
  1 52  1  0  0  0  0
M  END
> <PM6_ENERGY>
391.884

> <UID>
XMHNWGMHCCKPJG-RCIHBLQTNA-M

> <FITNESS>
1.14093

> <GCODE>
7665

> <GraphENC>
7665 72_1_0,81_66_1,106_44_1,85_64_1,154145_37_1, 72_0_81_0_SINGLE_Xlig:0_Xlig:1,72_2_106_1_SINGLE_scaff:0_MPhosphine:1,72_1_85_0_SINGLE_Xlig:0_Xlig:1,106_0_154145_0_SINGLE_LPhosphineSubM:0_SubArM:1, 

> <GraphJson>
{
  "graphId": 7665,
  "gVertices": [
    {
      "lstAPs": [
        {
          "id": 201785,
          "atomPositionNumber": 0,
          "atomPositionNumberInMol": 0,
          "apClass": {
            "rule": "Xlig",
            "subClass": 0,
            "bndTyp": "SINGLE"
          },
          "dirVec": {
            "x": -2.3339,
            "y": -0.0087,
            "z": 0.8172
          }
        },
        {
          "id": 201786,
          "atomPositionNumber": 0,
          "atomPositionNumberInMol": 0,
          "apClass": {
            "rule": "Xlig",
            "subClass": 0,
            "bndTyp": "SINGLE"
          },
          "dirVec": {
            "x": 2.336,
            "y": -5.0E-4,
            "z": 0.829
          }
        },
        {
          "id": 201787,
          "atomPositionNumber": 0,
          "atomPositionNumberInMol": 0,
          "apClass": {
            "rule": "scaff",
            "subClass": 0,
            "bndTyp": "SINGLE"
          },
          "dirVec": {
            "x": -0.0095,
            "y": 0.0046,
            "z": -1.7113
          }
        }
      ],
      "lstSymAPs": [
        {
          "symIds": [
            0,
            1
          ]
        }
      ],
      "mol": {
        "atoms": [
          {
            "elSymbol": "Pt",
            "p3d": {
              "x": -0.0098,
              "y": 0.0049,
              "z": 0.6289
            }
          },
          {
            "elSymbol": "C",
            "p3d": {
              "x": -6.0E-4,
              "y": 0.0016,
              "z": 2.5609
            }
          },
          {
            "elSymbol": "O",
            "p3d": {
              "x": 0.0025,
              "y": -0.0041,
              "z": 3.6974
            }
          },
          {
            "elSymbol": "Du",
            "p3d": {
              "x": -0.007,
              "y": 1.0013,
              "z": 0.6372
            }
          },
          {
            "elSymbol": "Du",
            "p3d": {
              "x": -0.0014,
              "y": 0.9902,
              "z": 2.5698
            }
          }
        ],
        "bonds": [
          {
            "atomIds": [
              1,
              2
            ],
            "bo": "TRIPLE"
          },
          {
            "atomIds": [
              0,
              1
            ],
            "bo": "SINGLE"
          },
          {
            "atomIds": [
              3,
              0
            ],
            "bo": "SINGLE"
          },
          {
            "atomIds": [
              4,
              1
            ],
            "bo": "SINGLE"
          }
        ]
      },
      "vertexId": 72,
      "buildingBlockId": 0,
      "buildingBlockType": "SCAFFOLD",
      "isRCV": false,
      "properties": {
        "ATTACHMENT_POINTS": "1#Xlig:0:SINGLE:-2.3339%-0.0087%0.8172,Xlig:0:SINGLE:2.3360%-0.0005%0.8290,scaff:0:SINGLE:-0.0095%0.0046%-1.7113 "
      },
      "uniquefyingPropertyKeys": [],
      "allowedMutationTypes": [
        "DELETE",
        "EXTEND",
        "CHANGEBRANCH",
        "CHANGELINK",
        "ADDLINK",
        "DELETELINK",
        "DELETECHAIN"
      ],
      "vertexType": "MolecularFragment"
    },
    {
      "lstAPs": [
        {
          "id": 201788,
          "atomPositionNumber": 0,
          "atomPositionNumberInMol": 5,
          "apClass": {
            "rule": "Xlig",
            "subClass": 1,
            "bndTyp": "SINGLE"
          },
          "dirVec": {
            "x": 0.0192,
            "y": -0.0048,
            "z": -0.5645
          }
        }
      ],
      "lstSymAPs": [],
      "mol": {
        "atoms": [
          {
            "elSymbol": "C",
            "p3d": {
              "x": -1.967,
              "y": -0.0075,
              "z": -0.4937
            }
          },
          {
            "elSymbol": "N",
            "p3d": {
              "x": -3.1263,
              "y": -0.0054,
              "z": -0.4354
            }
          },
          {
            "elSymbol": "Du",
            "p3d": {
              "x": -1.9744,
              "y": 0.9926,
              "z": -0.5036
            }
          }
        ],
        "bonds": [
          {
            "atomIds": [
              0,
              1
            ],
            "bo": "TRIPLE"
          },
          {
            "atomIds": [
              2,
              0
            ],
            "bo": "SINGLE"
          }
        ]
      },
      "vertexId": 81,
      "buildingBlockId": 65,
      "buildingBlockType": "FRAGMENT",
      "isRCV": false,
      "properties": {
        "ATTACHMENT_POINTS": "1#Xlig:1:SINGLE:0.0192%-0.0048%-0.5645 "
      },
      "uniquefyingPropertyKeys": [],
      "allowedMutationTypes": [
        "DELETE",
        "EXTEND",
        "CHANGEBRANCH",
        "CHANGELINK",
        "ADDLINK",
        "DELETELINK",
        "DELETECHAIN"
      ],
      "vertexType": "MolecularFragment"
    },
    {
      "lstAPs": [
        {
          "id": 201789,
          "atomPositionNumber": 0,
          "atomPositionNumberInMol": 8,
          "apClass": {
            "rule": "LPhosphineSubM",
            "subClass": 0,
            "bndTyp": "SINGLE"
          },
          "dirVec": {
            "x": 9.6921,
            "y": 11.1939,
            "z": 8.6295
          }
        },
        {
          "id": 201790,
          "atomPositionNumber": 0,
          "atomPositionNumberInMol": 8,
          "apClass": {
            "rule": "MPhosphine",
            "subClass": 1,
            "bndTyp": "SINGLE"
          },
          "dirVec": {
            "x": 6.9761,
            "y": 12.58,
            "z": 7.2794
          }
        }
      ],
      "lstSymAPs": [],
      "mol": {
        "atoms": [
          {
            "elSymbol": "P",
            "p3d": {
              "x": 7.9602,
              "y": 10.8392,
              "z": 8.2268
            }
          },
          {
            "elSymbol": "N",
            "p3d": {
              "x": 8.5483,
              "y": 9.0407,
              "z": 6.1703
            }
          },
          {
            "elSymbol": "N",
            "p3d": {
              "x": 6.8549,
              "y": 11.2353,
              "z": 10.7656
            }
          },
          {
            "elSymbol": "C",
            "p3d": {
              "x": 7.892,
              "y": 9.2815,
              "z": 7.3648
            }
          },
          {
            "elSymbol": "C",
            "p3d": {
              "x": 7.2175,
              "y": 8.1492,
              "z": 7.7741
            }
          },
          {
            "elSymbol": "C",
            "p3d": {
              "x": 7.4688,
              "y": 7.1556,
              "z": 6.7782
            }
          },
          {
            "elSymbol": "C",
            "p3d": {
              "x": 7.0398,
              "y": 5.8455,
              "z": 6.598
            }
          },
          {
            "elSymbol": "H",
            "p3d": {
              "x": 6.3745,
              "y": 5.367,
              "z": 7.3292
            }
          },
          {
            "elSymbol": "C",
            "p3d": {
              "x": 7.4705,
              "y": 5.1358,
              "z": 5.5039
            }
          },
          {
            "elSymbol": "H",
            "p3d": {
              "x": 7.1596,
              "y": 4.1112,
              "z": 5.3392
            }
          },
          {
            "elSymbol": "C",
            "p3d": {
              "x": 8.3441,
              "y": 5.7392,
              "z": 4.5675
            }
          },
          {
            "elSymbol": "H",
            "p3d": {
              "x": 8.6908,
              "y": 5.1616,
              "z": 3.701
            }
          },
          {
            "elSymbol": "C",
            "p3d": {
              "x": 8.7529,
              "y": 7.0311,
              "z": 4.694
            }
          },
          {
            "elSymbol": "H",
            "p3d": {
              "x": 9.424,
              "y": 7.4893,
              "z": 3.9498
            }
          },
          {
            "elSymbol": "C",
            "p3d": {
              "x": 8.3101,
              "y": 7.7617,
              "z": 5.8077
            }
          },
          {
            "elSymbol": "C",
            "p3d": {
              "x": 6.3606,
              "y": 8.0074,
              "z": 9.0072
            }
          },
          {
            "elSymbol": "H",
            "p3d": {
              "x": 5.3323,
              "y": 7.8023,
              "z": 8.7023
            }
          },
          {
            "elSymbol": "H",
            "p3d": {
              "x": 6.7225,
              "y": 7.1449,
              "z": 9.551
            }
          },
          {
            "elSymbol": "C",
            "p3d": {
              "x": 7.0777,
              "y": 10.3774,
              "z": 9.7037
            }
          },
          {
            "elSymbol": "C",
            "p3d": {
              "x": 6.3769,
              "y": 9.2031,
              "z": 9.8991
            }
          },
          {
            "elSymbol": "C",
            "p3d": {
              "x": 5.6859,
              "y": 9.3381,
              "z": 11.1369
            }
          },
          {
            "elSymbol": "C",
            "p3d": {
              "x": 4.7979,
              "y": 8.509,
              "z": 11.8479
            }
          },
          {
            "elSymbol": "H",
            "p3d": {
              "x": 4.5514,
              "y": 7.5178,
              "z": 11.4749
            }
          },
          {
            "elSymbol": "C",
            "p3d": {
              "x": 4.2496,
              "y": 8.9952,
              "z": 13.0233
            }
          },
          {
            "elSymbol": "H",
            "p3d": {
              "x": 3.5227,
              "y": 8.3741,
              "z": 13.5615
            }
          },
          {
            "elSymbol": "C",
            "p3d": {
              "x": 4.59,
              "y": 10.2669,
              "z": 13.5215
            }
          },
          {
            "elSymbol": "H",
            "p3d": {
              "x": 4.1412,
              "y": 10.5932,
              "z": 14.4483
            }
          },
          {
            "elSymbol": "C",
            "p3d": {
              "x": 5.4622,
              "y": 11.0858,
              "z": 12.854
            }
          },
          {
            "elSymbol": "H",
            "p3d": {
              "x": 5.7481,
              "y": 12.0539,
              "z": 13.2582
            }
          },
          {
            "elSymbol": "C",
            "p3d": {
              "x": 6.0068,
              "y": 10.6045,
              "z": 11.6592
            }
          },
          {
            "elSymbol": "H",
            "p3d": {
              "x": 7.1991,
              "y": 12.1768,
              "z": 10.8969
            }
          },
          {
            "elSymbol": "H",
            "p3d": {
              "x": 9.0993,
              "y": 9.7292,
              "z": 5.6737
            }
          }
        ],
        "bonds": [
          {
            "atomIds": [
              1,
              3
            ],
            "bo": "SINGLE"
          },
          {
            "atomIds": [
              2,
              18
            ],
            "bo": "SINGLE"
          },
          {
            "atomIds": [
              3,
              0
            ],
            "bo": "SINGLE"
          },
          {
            "atomIds": [
              4,
              3
            ],
            "bo": "DOUBLE"
          },
          {
            "atomIds": [
              5,
              4
            ],
            "bo": "SINGLE"
          },
          {
            "atomIds": [
              5,
              14
            ],
            "bo": "DOUBLE"
          },
          {
            "atomIds": [
              6,
              5
            ],
            "bo": "SINGLE"
          },
          {
            "atomIds": [
              7,
              6
            ],
            "bo": "SINGLE"
          },
          {
            "atomIds": [
              8,
              6
            ],
            "bo": "DOUBLE"
          },
          {
            "atomIds": [
              9,
              8
            ],
            "bo": "SINGLE"
          },
          {
            "atomIds": [
              10,
              8
            ],
            "bo": "SINGLE"
          },
          {
            "atomIds": [
              11,
              10
            ],
            "bo": "SINGLE"
          },
          {
            "atomIds": [
              12,
              10
            ],
            "bo": "DOUBLE"
          },
          {
            "atomIds": [
              12,
              14
            ],
            "bo": "SINGLE"
          },
          {
            "atomIds": [
              13,
              12
            ],
            "bo": "SINGLE"
          },
          {
            "atomIds": [
              14,
              1
            ],
            "bo": "SINGLE"
          },
          {
            "atomIds": [
              15,
              4
            ],
            "bo": "SINGLE"
          },
          {
            "atomIds": [
              16,
              15
            ],
            "bo": "SINGLE"
          },
          {
            "atomIds": [
              17,
              15
            ],
            "bo": "SINGLE"
          },
          {
            "atomIds": [
              18,
              0
            ],
            "bo": "SINGLE"
          },
          {
            "atomIds": [
              18,
              19
            ],
            "bo": "DOUBLE"
          },
          {
            "atomIds": [
              19,
              15
            ],
            "bo": "SINGLE"
          },
          {
            "atomIds": [
              20,
              19
            ],
            "bo": "SINGLE"
          },
          {
            "atomIds": [
              20,
              29
            ],
            "bo": "DOUBLE"
          },
          {
            "atomIds": [
              21,
              20
            ],
            "bo": "SINGLE"
          },
          {
            "atomIds": [
              22,
              21
            ],
            "bo": "SINGLE"
          },
          {
            "atomIds": [
              23,
              21
            ],
            "bo": "DOUBLE"
          },
          {
            "atomIds": [
              24,
              23
            ],
            "bo": "SINGLE"
          },
          {
            "atomIds": [
              25,
              23
            ],
            "bo": "SINGLE"
          },
          {
            "atomIds": [
              26,
              25
            ],
            "bo": "SINGLE"
          },
          {
            "atomIds": [
              27,
              25
            ],
            "bo": "DOUBLE"
          },
          {
            "atomIds": [
              27,
              29
            ],
            "bo": "SINGLE"
          },
          {
            "atomIds": [
              28,
              27
            ],
            "bo": "SINGLE"
          },
          {
            "atomIds": [
              29,
              2
            ],
            "bo": "SINGLE"
          },
          {
            "atomIds": [
              30,
              2
            ],
            "bo": "SINGLE"
          },
          {
            "atomIds": [
              31,
              1
            ],
            "bo": "SINGLE"
          }
        ]
      },
      "vertexId": 106,
      "buildingBlockId": 43,
      "buildingBlockType": "FRAGMENT",
      "isRCV": false,
      "properties": {
        "ATTACHMENT_POINTS": "1#LPhosphineSubM:0:SINGLE:9.6921%11.1939%8.6295,MPhosphine:1:SINGLE:6.9761%12.5800%7.2794 "
      },
      "uniquefyingPropertyKeys": [],
      "allowedMutationTypes": [
        "DELETE",
        "EXTEND",
        "CHANGEBRANCH",
        "CHANGELINK",
        "ADDLINK",
        "DELETELINK",
        "DELETECHAIN"
      ],
      "vertexType": "MolecularFragment"
    },
    {
      "lstAPs": [
        {
          "id": 201791,
          "atomPositionNumber": 0,
          "atomPositionNumberInMol": 54,
          "apClass": {
            "rule": "Xlig",
            "subClass": 1,
            "bndTyp": "SINGLE"
          },
          "dirVec": {
            "x": -0.102,
            "y": 0.0185,
            "z": -1.0265
          }
        }
      ],
      "lstSymAPs": [],
      "mol": {
        "atoms": [
          {
            "elSymbol": "S",
            "p3d": {
              "x": -0.3267,
              "y": 2.3403,
              "z": -1.0022
            }
          },
          {
            "elSymbol": "C",
            "p3d": {
              "x": -0.626,
              "y": 2.4866,
              "z": 0.7805
            }
          },
          {
            "elSymbol": "H",
            "p3d": {
              "x": 0.1766,
              "y": 3.089,
              "z": 1.2414
            }
          },
          {
            "elSymbol": "H",
            "p3d": {
              "x": -0.651,
              "y": 1.5065,
              "z": 1.2643
            }
          },
          {
            "elSymbol": "H",
            "p3d": {
              "x": -1.5658,
              "y": 2.981,
              "z": 0.9515
            }
          }
        ],
        "bonds": [
          {
            "atomIds": [
              1,
              2
            ],
            "bo": "SINGLE"
          },
          {
            "atomIds": [
              1,
              3
            ],
            "bo": "SINGLE"
          },
          {
            "atomIds": [
              1,
              4
            ],
            "bo": "SINGLE"
          },
          {
            "atomIds": [
              0,
              1
            ],
            "bo": "SINGLE"
          }
        ]
      },
      "vertexId": 85,
      "buildingBlockId": 63,
      "buildingBlockType": "FRAGMENT",
      "isRCV": false,
      "properties": {
        "ATTACHMENT_POINTS": "1#Xlig:1:SINGLE:-0.1020%0.0185%-1.0265 "
      },
      "uniquefyingPropertyKeys": [],
      "allowedMutationTypes": [
        "DELETE",
        "EXTEND",
        "CHANGEBRANCH",
        "CHANGELINK",
        "ADDLINK",
        "DELETELINK",
        "DELETECHAIN"
      ],
      "vertexType": "MolecularFragment"
    },
    {
      "lstAPs": [
        {
          "id": 201816,
          "atomPositionNumber": 0,
          "atomPositionNumberInMol": 40,
          "apClass": {
            "rule": "SubArM",
            "subClass": 1,
            "bndTyp": "SINGLE"
          },
          "dirVec": {
            "x": 0.3016,
            "y": 0.3831,
            "z": -0.6449
          }
        }
      ],
      "lstSymAPs": [],
      "mol": {
        "atoms": [
          {
            "elSymbol": "C",
            "p3d": {
              "x": 1.7096,
              "y": 0.5525,
              "z": -1.2136
            }
          },
          {
            "elSymbol": "C",
            "p3d": {
              "x": 4.2502,
              "y": 0.8767,
              "z": -2.2636
            }
          },
          {
            "elSymbol": "C",
            "p3d": {
              "x": 2.3368,
              "y": 1.7899,
              "z": -1.1199
            }
          },
          {
            "elSymbol": "C",
            "p3d": {
              "x": 2.344,
              "y": -0.5151,
              "z": -1.819
            }
          },
          {
            "elSymbol": "C",
            "p3d": {
              "x": 3.6162,
              "y": -0.3625,
              "z": -2.3439
            }
          },
          {
            "elSymbol": "C",
            "p3d": {
              "x": 3.6039,
              "y": 1.9353,
              "z": -1.6584
            }
          },
          {
            "elSymbol": "H",
            "p3d": {
              "x": 1.8411,
              "y": -1.493,
              "z": -1.8837
            }
          },
          {
            "elSymbol": "H",
            "p3d": {
              "x": 4.113,
              "y": -1.2006,
              "z": -2.8069
            }
          },
          {
            "elSymbol": "H",
            "p3d": {
              "x": 4.1107,
              "y": 2.9115,
              "z": -1.5913
            }
          },
          {
            "elSymbol": "H",
            "p3d": {
              "x": 5.2516,
              "y": 0.992,
              "z": -2.67
            }
          },
          {
            "elSymbol": "C",
            "p3d": {
              "x": 1.6301,
              "y": 2.9729,
              "z": -0.4606
            }
          },
          {
            "elSymbol": "H",
            "p3d": {
              "x": 2.3743,
              "y": 3.6775,
              "z": -0.0646
            }
          },
          {
            "elSymbol": "H",
            "p3d": {
              "x": 1.0016,
              "y": 2.6144,
              "z": 0.3512
            }
          },
          {
            "elSymbol": "H",
            "p3d": {
              "x": 1.0097,
              "y": 3.4845,
              "z": -1.1971
            }
          }
        ],
        "bonds": [
          {
            "atomIds": [
              0,
              3
            ],
            "bo": "SINGLE"
          },
          {
            "atomIds": [
              3,
              4
            ],
            "bo": "DOUBLE"
          },
          {
            "atomIds": [
              1,
              4
            ],
            "bo": "SINGLE"
          },
          {
            "atomIds": [
              1,
              5
            ],
            "bo": "DOUBLE"
          },
          {
            "atomIds": [
              2,
              5
            ],
            "bo": "SINGLE"
          },
          {
            "atomIds": [
              0,
              2
            ],
            "bo": "DOUBLE"
          },
          {
            "atomIds": [
              4,
              7
            ],
            "bo": "SINGLE"
          },
          {
            "atomIds": [
              5,
              8
            ],
            "bo": "SINGLE"
          },
          {
            "atomIds": [
              1,
              9
            ],
            "bo": "SINGLE"
          },
          {
            "atomIds": [
              3,
              6
            ],
            "bo": "SINGLE"
          },
          {
            "atomIds": [
              10,
              11
            ],
            "bo": "SINGLE"
          },
          {
            "atomIds": [
              10,
              12
            ],
            "bo": "SINGLE"
          },
          {
            "atomIds": [
              10,
              13
            ],
            "bo": "SINGLE"
          },
          {
            "atomIds": [
              2,
              10
            ],
            "bo": "SINGLE"
          }
        ]
      },
      "vertexId": 154145,
      "buildingBlockId": 36,
      "buildingBlockType": "FRAGMENT",
      "isRCV": false,
      "properties": {
        "ATTACHMENT_POINTS": "1#SubArM:1:SINGLE:0.3016%0.3831%-0.6449 "
      },
      "uniquefyingPropertyKeys": [],
      "allowedMutationTypes": [
        "DELETE",
        "EXTEND",
        "CHANGEBRANCH",
        "CHANGELINK",
        "ADDLINK",
        "DELETELINK",
        "DELETECHAIN"
      ],
      "vertexType": "MolecularFragment"
    }
  ],
  "gEdges": [
    {
      "srcAPID": 201785,
      "trgAPID": 201788,
      "bondType": "SINGLE"
    },
    {
      "srcAPID": 201787,
      "trgAPID": 201790,
      "bondType": "SINGLE"
    },
    {
      "srcAPID": 201786,
      "trgAPID": 201791,
      "bondType": "SINGLE"
    },
    {
      "srcAPID": 201789,
      "trgAPID": 201816,
      "bondType": "SINGLE"
    }
  ],
  "gRings": [],
  "symVertices": []
}

> <SMILES>
[Pt](C#O)(C#N)([P]1(C=2N(C3=C(C2C([H])([H])C4=C1N(C5=C4C([H])=C([H])C([H])=C5[H])[H])C([H])=C([H])C([H])=C3[H])[H])C=6C(=C(C(=C(C6C([H])([H])[H])[H])[H])[H])[H])SC([H])([H])[H]

$$$$
