M00007024
  CDK     04222211143D

 56 59  0  0  0  0  0  0  0  0999 V2000
   -2.5622    0.6845    0.1075 Pt  0  0  0  0  0  0  0  0  0  0  0  0
   -4.5009    0.8099   -0.0604 C   0  0  0  0  0  0  0  0  0  0  0  0
   -5.6355    0.8442   -0.1779 O   0  0  0  0  0  0  0  0  0  0  0  0
   -2.2845    2.4516    1.0043 C   0  0  0  0  0  0  0  0  0  0  0  0
   -2.1525    3.4627    1.5483 N   0  0  0  0  0  0  0  0  0  0  0  0
   -0.2892    0.5135    0.2383 P   0  0  0  0  0  0  0  0  0  0  0  0
    0.4932    1.9425   -0.6925 C   0  0  0  0  0  0  0  0  0  0  0  0
    1.1935    2.6588    0.2052 C   0  0  0  0  0  0  0  0  0  0  0  0
    1.1777    2.1763    1.6043 C   0  0  0  0  0  0  0  0  0  0  0  0
    0.4683    1.0634    1.8611 C   0  0  0  0  0  0  0  0  0  0  0  0
    1.7347    3.5744   -0.0260 H   0  0  0  0  0  0  0  0  0  0  0  0
    1.7148    2.7473    2.3604 H   0  0  0  0  0  0  0  0  0  0  0  0
    0.5215   -1.1158   -0.3083 C   0  0  0  0  0  0  0  0  0  0  0  0
    0.9967   -2.6015   -2.2805 C   0  0  0  0  0  0  0  0  0  0  0  0
    2.6384   -2.4760   -0.3594 C   0  0  0  0  0  0  0  0  0  0  0  0
    2.4726   -2.6826   -1.8707 C   0  0  0  0  0  0  0  0  0  0  0  0
    1.9998   -1.1535    0.0998 C   0  0  0  0  0  0  0  0  0  0  0  0
    0.3593   -1.2777   -1.8260 C   0  0  0  0  0  0  0  0  0  0  0  0
    0.4359   -3.4545   -1.8514 H   0  0  0  0  0  0  0  0  0  0  0  0
    2.1806   -3.3240    0.1857 H   0  0  0  0  0  0  0  0  0  0  0  0
    3.0572   -1.9205   -2.4211 H   0  0  0  0  0  0  0  0  0  0  0  0
    2.5652   -0.3107   -0.3473 H   0  0  0  0  0  0  0  0  0  0  0  0
    0.8366   -0.4441   -2.3819 H   0  0  0  0  0  0  0  0  0  0  0  0
   -0.0256   -1.9510    0.2058 H   0  0  0  0  0  0  0  0  0  0  0  0
    0.9015   -2.6998   -3.3787 H   0  0  0  0  0  0  0  0  0  0  0  0
    3.7117   -2.4839   -0.0922 H   0  0  0  0  0  0  0  0  0  0  0  0
    2.8936   -3.6620   -2.1661 H   0  0  0  0  0  0  0  0  0  0  0  0
    2.1207   -1.0659    1.2047 H   0  0  0  0  0  0  0  0  0  0  0  0
   -0.7134   -1.2813   -2.1242 H   0  0  0  0  0  0  0  0  0  0  0  0
    0.2195    0.3748    3.1206 C   0  0  0  0  0  0  0  0  0  0  0  0
   -0.2600   -0.9182    5.5559 C   0  0  0  0  0  0  0  0  0  0  0  0
   -0.7275    0.8968    4.0178 C   0  0  0  0  0  0  0  0  0  0  0  0
    0.9242   -0.7951    3.4463 C   0  0  0  0  0  0  0  0  0  0  0  0
    0.6830   -1.4371    4.6626 C   0  0  0  0  0  0  0  0  0  0  0  0
   -0.9630    0.2470    5.2316 C   0  0  0  0  0  0  0  0  0  0  0  0
   -1.2744    1.8085    3.7638 H   0  0  0  0  0  0  0  0  0  0  0  0
    1.6652   -1.1962    2.7474 H   0  0  0  0  0  0  0  0  0  0  0  0
    1.2318   -2.3429    4.9164 H   0  0  0  0  0  0  0  0  0  0  0  0
   -1.6969    0.6526    5.9280 H   0  0  0  0  0  0  0  0  0  0  0  0
   -0.4461   -1.4201    6.5040 H   0  0  0  0  0  0  0  0  0  0  0  0
    0.2599    2.1528   -2.1120 C   0  0  0  0  0  0  0  0  0  0  0  0
   -0.1697    2.5663   -4.8507 C   0  0  0  0  0  0  0  0  0  0  0  0
    1.3440    2.4268   -2.9643 C   0  0  0  0  0  0  0  0  0  0  0  0
   -1.0445    2.0897   -2.6387 C   0  0  0  0  0  0  0  0  0  0  0  0
   -1.2509    2.2991   -4.0041 C   0  0  0  0  0  0  0  0  0  0  0  0
    1.1258    2.6300   -4.3289 C   0  0  0  0  0  0  0  0  0  0  0  0
    2.3531    2.4787   -2.5601 H   0  0  0  0  0  0  0  0  0  0  0  0
   -1.9070    1.8961   -1.9876 H   0  0  0  0  0  0  0  0  0  0  0  0
   -2.2614    2.2536   -4.4110 H   0  0  0  0  0  0  0  0  0  0  0  0
    1.9679    2.8409   -4.9870 H   0  0  0  0  0  0  0  0  0  0  0  0
   -0.3381    2.7261   -5.9147 H   0  0  0  0  0  0  0  0  0  0  0  0
   -3.1610   -1.3412   -0.8934 S   0  0  0  0  0  0  0  0  0  0  0  0
   -3.1438   -2.3193    0.6380 C   0  0  0  0  0  0  0  0  0  0  0  0
   -4.0875   -2.8710    0.7268 H   0  0  0  0  0  0  0  0  0  0  0  0
   -3.0286   -1.6788    1.5205 H   0  0  0  0  0  0  0  0  0  0  0  0
   -2.3241   -3.0443    0.6120 H   0  0  0  0  0  0  0  0  0  0  0  0
  2  3  3  0  0  0  0
  1  2  1  0  0  0  0
  4  5  3  0  0  0  0
  1  4  1  0  0  0  0
  7  6  1  0  0  0  0
  8  7  2  0  0  0  0
  9  8  1  0  0  0  0
  9 10  2  0  0  0  0
 10  6  1  0  0  0  0
  8 11  1  0  0  0  0
  9 12  1  0  0  0  0
  1  6  1  0  0  0  0
 13 24  1  0  0  0  0
 13 17  1  0  0  0  0
 13 18  1  0  0  0  0
 14 19  1  0  0  0  0
 14 25  1  0  0  0  0
 14 16  1  0  0  0  0
 14 18  1  0  0  0  0
 15 20  1  0  0  0  0
 15 26  1  0  0  0  0
 15 17  1  0  0  0  0
 15 16  1  0  0  0  0
 16 21  1  0  0  0  0
 16 27  1  0  0  0  0
 17 22  1  0  0  0  0
 17 28  1  0  0  0  0
 18 23  1  0  0  0  0
 18 29  1  0  0  0  0
  6 13  1  0  0  0  0
 30 33  1  0  0  0  0
 33 34  2  0  0  0  0
 31 34  1  0  0  0  0
 31 35  2  0  0  0  0
 32 35  1  0  0  0  0
 30 32  2  0  0  0  0
 34 38  1  0  0  0  0
 35 39  1  0  0  0  0
 31 40  1  0  0  0  0
 32 36  1  0  0  0  0
 33 37  1  0  0  0  0
 10 30  1  0  0  0  0
 41 44  1  0  0  0  0
 44 45  2  0  0  0  0
 42 45  1  0  0  0  0
 42 46  2  0  0  0  0
 43 46  1  0  0  0  0
 41 43  2  0  0  0  0
 45 49  1  0  0  0  0
 46 50  1  0  0  0  0
 42 51  1  0  0  0  0
 43 47  1  0  0  0  0
 44 48  1  0  0  0  0
  7 41  1  0  0  0  0
 53 54  1  0  0  0  0
 53 55  1  0  0  0  0
 53 56  1  0  0  0  0
 52 53  1  0  0  0  0
  1 52  1  0  0  0  0
M  END
> <PM6_ENERGY>
252.703

> <UID>
ZSMAENNGGOXZOT-DGEMSTCZNA-M

> <FITNESS>
1.14118

> <GCODE>
7897

> <GraphENC>
7897 72_1_0,81_66_1,115_55_1,85_64_1,158000_35_1,158407_36_1,158009_36_1, 72_0_81_0_SINGLE_Xlig:0_Xlig:1,72_2_115_1_SINGLE_scaff:0_MPhosphole:1,72_1_85_0_SINGLE_Xlig:0_Xlig:1,115_0_158000_0_SINGLE_LPhospholeSubR:0_SubRM:1,115_3_158407_0_SINGLE_LPhospholeSubAlpha:0_SubArS:1,115_2_158009_0_SINGLE_LPhospholeSubAlpha:0_SubArS:1, SymmetricSet [symIds=[158407, 158009]] 

> <GraphJson>
{
  "graphId": 7897,
  "gVertices": [
    {
      "lstAPs": [
        {
          "id": 207249,
          "atomPositionNumber": 0,
          "atomPositionNumberInMol": 0,
          "apClass": {
            "rule": "Xlig",
            "subClass": 0,
            "bndTyp": "SINGLE"
          },
          "dirVec": {
            "x": -2.3339,
            "y": -0.0087,
            "z": 0.8172
          }
        },
        {
          "id": 207250,
          "atomPositionNumber": 0,
          "atomPositionNumberInMol": 0,
          "apClass": {
            "rule": "Xlig",
            "subClass": 0,
            "bndTyp": "SINGLE"
          },
          "dirVec": {
            "x": 2.336,
            "y": -5.0E-4,
            "z": 0.829
          }
        },
        {
          "id": 207251,
          "atomPositionNumber": 0,
          "atomPositionNumberInMol": 0,
          "apClass": {
            "rule": "scaff",
            "subClass": 0,
            "bndTyp": "SINGLE"
          },
          "dirVec": {
            "x": -0.0095,
            "y": 0.0046,
            "z": -1.7113
          }
        }
      ],
      "lstSymAPs": [
        {
          "symIds": [
            0,
            1
          ]
        }
      ],
      "mol": {
        "atoms": [
          {
            "elSymbol": "Pt",
            "p3d": {
              "x": -0.0098,
              "y": 0.0049,
              "z": 0.6289
            }
          },
          {
            "elSymbol": "C",
            "p3d": {
              "x": -6.0E-4,
              "y": 0.0016,
              "z": 2.5609
            }
          },
          {
            "elSymbol": "O",
            "p3d": {
              "x": 0.0025,
              "y": -0.0041,
              "z": 3.6974
            }
          },
          {
            "elSymbol": "Du",
            "p3d": {
              "x": -0.007,
              "y": 1.0013,
              "z": 0.6372
            }
          },
          {
            "elSymbol": "Du",
            "p3d": {
              "x": -0.0014,
              "y": 0.9902,
              "z": 2.5698
            }
          }
        ],
        "bonds": [
          {
            "atomIds": [
              1,
              2
            ],
            "bo": "TRIPLE"
          },
          {
            "atomIds": [
              0,
              1
            ],
            "bo": "SINGLE"
          },
          {
            "atomIds": [
              3,
              0
            ],
            "bo": "SINGLE"
          },
          {
            "atomIds": [
              4,
              1
            ],
            "bo": "SINGLE"
          }
        ]
      },
      "vertexId": 72,
      "buildingBlockId": 0,
      "buildingBlockType": "SCAFFOLD",
      "isRCV": false,
      "properties": {
        "ATTACHMENT_POINTS": "1#Xlig:0:SINGLE:-2.3339%-0.0087%0.8172,Xlig:0:SINGLE:2.3360%-0.0005%0.8290,scaff:0:SINGLE:-0.0095%0.0046%-1.7113 "
      },
      "uniquefyingPropertyKeys": [],
      "allowedMutationTypes": [
        "DELETE",
        "EXTEND",
        "CHANGEBRANCH",
        "CHANGELINK",
        "ADDLINK",
        "DELETELINK",
        "DELETECHAIN"
      ],
      "vertexType": "MolecularFragment"
    },
    {
      "lstAPs": [
        {
          "id": 207252,
          "atomPositionNumber": 0,
          "atomPositionNumberInMol": 5,
          "apClass": {
            "rule": "Xlig",
            "subClass": 1,
            "bndTyp": "SINGLE"
          },
          "dirVec": {
            "x": 0.0192,
            "y": -0.0048,
            "z": -0.5645
          }
        }
      ],
      "lstSymAPs": [],
      "mol": {
        "atoms": [
          {
            "elSymbol": "C",
            "p3d": {
              "x": -1.967,
              "y": -0.0075,
              "z": -0.4937
            }
          },
          {
            "elSymbol": "N",
            "p3d": {
              "x": -3.1263,
              "y": -0.0054,
              "z": -0.4354
            }
          },
          {
            "elSymbol": "Du",
            "p3d": {
              "x": -1.9744,
              "y": 0.9926,
              "z": -0.5036
            }
          }
        ],
        "bonds": [
          {
            "atomIds": [
              0,
              1
            ],
            "bo": "TRIPLE"
          },
          {
            "atomIds": [
              2,
              0
            ],
            "bo": "SINGLE"
          }
        ]
      },
      "vertexId": 81,
      "buildingBlockId": 65,
      "buildingBlockType": "FRAGMENT",
      "isRCV": false,
      "properties": {
        "ATTACHMENT_POINTS": "1#Xlig:1:SINGLE:0.0192%-0.0048%-0.5645 "
      },
      "uniquefyingPropertyKeys": [],
      "allowedMutationTypes": [
        "DELETE",
        "EXTEND",
        "CHANGEBRANCH",
        "CHANGELINK",
        "ADDLINK",
        "DELETELINK",
        "DELETECHAIN"
      ],
      "vertexType": "MolecularFragment"
    },
    {
      "lstAPs": [
        {
          "id": 207253,
          "atomPositionNumber": 0,
          "atomPositionNumberInMol": 8,
          "apClass": {
            "rule": "LPhospholeSubR",
            "subClass": 0,
            "bndTyp": "SINGLE"
          },
          "dirVec": {
            "x": 4.21,
            "y": -5.7776,
            "z": -2.4063
          }
        },
        {
          "id": 207254,
          "atomPositionNumber": 0,
          "atomPositionNumberInMol": 8,
          "apClass": {
            "rule": "MPhosphole",
            "subClass": 1,
            "bndTyp": "SINGLE"
          },
          "dirVec": {
            "x": 1.5693,
            "y": -5.3781,
            "z": -4.7398
          }
        },
        {
          "id": 207255,
          "atomPositionNumber": 1,
          "atomPositionNumberInMol": 9,
          "apClass": {
            "rule": "LPhospholeSubAlpha",
            "subClass": 0,
            "bndTyp": "SINGLE"
          },
          "dirVec": {
            "x": 4.3472,
            "y": -8.5987,
            "z": -4.7607
          }
        },
        {
          "id": 207256,
          "atomPositionNumber": 4,
          "atomPositionNumberInMol": 12,
          "apClass": {
            "rule": "LPhospholeSubAlpha",
            "subClass": 0,
            "bndTyp": "SINGLE"
          },
          "dirVec": {
            "x": 4.7612,
            "y": -2.979,
            "z": -4.8399
          }
        }
      ],
      "lstSymAPs": [
        {
          "symIds": [
            2,
            3
          ]
        }
      ],
      "mol": {
        "atoms": [
          {
            "elSymbol": "P",
            "p3d": {
              "x": 3.7869,
              "y": -5.7373,
              "z": -4.1775
            }
          },
          {
            "elSymbol": "C",
            "p3d": {
              "x": 4.6962,
              "y": -7.134,
              "z": -4.9215
            }
          },
          {
            "elSymbol": "C",
            "p3d": {
              "x": 5.7131,
              "y": -6.6248,
              "z": -5.5939
            }
          },
          {
            "elSymbol": "C",
            "p3d": {
              "x": 5.829,
              "y": -5.1544,
              "z": -5.5761
            }
          },
          {
            "elSymbol": "C",
            "p3d": {
              "x": 4.9136,
              "y": -4.4844,
              "z": -4.9337
            }
          },
          {
            "elSymbol": "H",
            "p3d": {
              "x": 6.3586,
              "y": -7.3193,
              "z": -6.107
            }
          },
          {
            "elSymbol": "H",
            "p3d": {
              "x": 6.5956,
              "y": -4.5443,
              "z": -6.0507
            }
          }
        ],
        "bonds": [
          {
            "atomIds": [
              1,
              0
            ],
            "bo": "SINGLE"
          },
          {
            "atomIds": [
              2,
              1
            ],
            "bo": "DOUBLE"
          },
          {
            "atomIds": [
              3,
              2
            ],
            "bo": "SINGLE"
          },
          {
            "atomIds": [
              3,
              4
            ],
            "bo": "DOUBLE"
          },
          {
            "atomIds": [
              4,
              0
            ],
            "bo": "SINGLE"
          },
          {
            "atomIds": [
              2,
              5
            ],
            "bo": "SINGLE"
          },
          {
            "atomIds": [
              3,
              6
            ],
            "bo": "SINGLE"
          }
        ]
      },
      "vertexId": 115,
      "buildingBlockId": 54,
      "buildingBlockType": "FRAGMENT",
      "isRCV": false,
      "properties": {
        "ATTACHMENT_POINTS": "1#LPhospholeSubR:0:SINGLE:4.2100%-5.7776%-2.4063,MPhosphole:1:SINGLE:1.5693%-5.3781%-4.7398 2#LPhospholeSubAlpha:0:SINGLE:4.3472%-8.5987%-4.7607 5#LPhospholeSubAlpha:0:SINGLE:4.7612%-2.9790%-4.8399 "
      },
      "uniquefyingPropertyKeys": [],
      "allowedMutationTypes": [
        "DELETE",
        "EXTEND",
        "CHANGEBRANCH",
        "CHANGELINK",
        "ADDLINK",
        "DELETELINK",
        "DELETECHAIN"
      ],
      "vertexType": "MolecularFragment"
    },
    {
      "lstAPs": [
        {
          "id": 207257,
          "atomPositionNumber": 0,
          "atomPositionNumberInMol": 54,
          "apClass": {
            "rule": "Xlig",
            "subClass": 1,
            "bndTyp": "SINGLE"
          },
          "dirVec": {
            "x": -0.102,
            "y": 0.0185,
            "z": -1.0265
          }
        }
      ],
      "lstSymAPs": [],
      "mol": {
        "atoms": [
          {
            "elSymbol": "S",
            "p3d": {
              "x": -0.3267,
              "y": 2.3403,
              "z": -1.0022
            }
          },
          {
            "elSymbol": "C",
            "p3d": {
              "x": -0.626,
              "y": 2.4866,
              "z": 0.7805
            }
          },
          {
            "elSymbol": "H",
            "p3d": {
              "x": 0.1766,
              "y": 3.089,
              "z": 1.2414
            }
          },
          {
            "elSymbol": "H",
            "p3d": {
              "x": -0.651,
              "y": 1.5065,
              "z": 1.2643
            }
          },
          {
            "elSymbol": "H",
            "p3d": {
              "x": -1.5658,
              "y": 2.981,
              "z": 0.9515
            }
          }
        ],
        "bonds": [
          {
            "atomIds": [
              1,
              2
            ],
            "bo": "SINGLE"
          },
          {
            "atomIds": [
              1,
              3
            ],
            "bo": "SINGLE"
          },
          {
            "atomIds": [
              1,
              4
            ],
            "bo": "SINGLE"
          },
          {
            "atomIds": [
              0,
              1
            ],
            "bo": "SINGLE"
          }
        ]
      },
      "vertexId": 85,
      "buildingBlockId": 63,
      "buildingBlockType": "FRAGMENT",
      "isRCV": false,
      "properties": {
        "ATTACHMENT_POINTS": "1#Xlig:1:SINGLE:-0.1020%0.0185%-1.0265 "
      },
      "uniquefyingPropertyKeys": [],
      "allowedMutationTypes": [
        "DELETE",
        "EXTEND",
        "CHANGEBRANCH",
        "CHANGELINK",
        "ADDLINK",
        "DELETELINK",
        "DELETECHAIN"
      ],
      "vertexType": "MolecularFragment"
    },
    {
      "lstAPs": [
        {
          "id": 207294,
          "atomPositionNumber": 0,
          "atomPositionNumberInMol": 15,
          "apClass": {
            "rule": "SubRM",
            "subClass": 1,
            "bndTyp": "SINGLE"
          },
          "dirVec": {
            "x": 0.2917,
            "y": 0.3929,
            "z": -0.6365
          }
        }
      ],
      "lstSymAPs": [],
      "mol": {
        "atoms": [
          {
            "elSymbol": "C",
            "p3d": {
              "x": 1.7002,
              "y": 0.56,
              "z": -1.2045
            }
          },
          {
            "elSymbol": "C",
            "p3d": {
              "x": 3.564,
              "y": -0.7339,
              "z": -2.2652
            }
          },
          {
            "elSymbol": "C",
            "p3d": {
              "x": 2.9237,
              "y": 1.5034,
              "z": -3.1926
            }
          },
          {
            "elSymbol": "C",
            "p3d": {
              "x": 3.4145,
              "y": 0.0994,
              "z": -3.5498
            }
          },
          {
            "elSymbol": "C",
            "p3d": {
              "x": 1.5576,
              "y": 1.3879,
              "z": -2.5024
            }
          },
          {
            "elSymbol": "C",
            "p3d": {
              "x": 2.203,
              "y": -0.843,
              "z": -1.5702
            }
          },
          {
            "elSymbol": "H",
            "p3d": {
              "x": 4.3384,
              "y": -0.3241,
              "z": -1.6106
            }
          },
          {
            "elSymbol": "H",
            "p3d": {
              "x": 3.6361,
              "y": 2.0524,
              "z": -2.5991
            }
          },
          {
            "elSymbol": "H",
            "p3d": {
              "x": 2.7828,
              "y": -0.3911,
              "z": -4.2916
            }
          },
          {
            "elSymbol": "H",
            "p3d": {
              "x": 0.7737,
              "y": 0.9833,
              "z": -3.15
            }
          },
          {
            "elSymbol": "H",
            "p3d": {
              "x": 1.4815,
              "y": -1.3988,
              "z": -2.1783
            }
          },
          {
            "elSymbol": "H",
            "p3d": {
              "x": 2.3445,
              "y": 1.0609,
              "z": -0.4835
            }
          },
          {
            "elSymbol": "H",
            "p3d": {
              "x": 3.8429,
              "y": -1.7623,
              "z": -2.577
            }
          },
          {
            "elSymbol": "H",
            "p3d": {
              "x": 2.7428,
              "y": 2.0124,
              "z": -4.146
            }
          },
          {
            "elSymbol": "H",
            "p3d": {
              "x": 4.4291,
              "y": 0.2183,
              "z": -3.9628
            }
          },
          {
            "elSymbol": "H",
            "p3d": {
              "x": 1.2819,
              "y": 2.4034,
              "z": -2.1821
            }
          },
          {
            "elSymbol": "H",
            "p3d": {
              "x": 2.3734,
              "y": -1.3662,
              "z": -0.6149
            }
          }
        ],
        "bonds": [
          {
            "atomIds": [
              0,
              11
            ],
            "bo": "SINGLE"
          },
          {
            "atomIds": [
              0,
              4
            ],
            "bo": "SINGLE"
          },
          {
            "atomIds": [
              0,
              5
            ],
            "bo": "SINGLE"
          },
          {
            "atomIds": [
              1,
              6
            ],
            "bo": "SINGLE"
          },
          {
            "atomIds": [
              1,
              12
            ],
            "bo": "SINGLE"
          },
          {
            "atomIds": [
              1,
              3
            ],
            "bo": "SINGLE"
          },
          {
            "atomIds": [
              1,
              5
            ],
            "bo": "SINGLE"
          },
          {
            "atomIds": [
              2,
              7
            ],
            "bo": "SINGLE"
          },
          {
            "atomIds": [
              2,
              13
            ],
            "bo": "SINGLE"
          },
          {
            "atomIds": [
              2,
              4
            ],
            "bo": "SINGLE"
          },
          {
            "atomIds": [
              2,
              3
            ],
            "bo": "SINGLE"
          },
          {
            "atomIds": [
              3,
              8
            ],
            "bo": "SINGLE"
          },
          {
            "atomIds": [
              3,
              14
            ],
            "bo": "SINGLE"
          },
          {
            "atomIds": [
              4,
              9
            ],
            "bo": "SINGLE"
          },
          {
            "atomIds": [
              4,
              15
            ],
            "bo": "SINGLE"
          },
          {
            "atomIds": [
              5,
              10
            ],
            "bo": "SINGLE"
          },
          {
            "atomIds": [
              5,
              16
            ],
            "bo": "SINGLE"
          }
        ]
      },
      "vertexId": 158000,
      "buildingBlockId": 34,
      "buildingBlockType": "FRAGMENT",
      "isRCV": false,
      "properties": {
        "ATTACHMENT_POINTS": "1#SubRM:1:SINGLE:0.2917%0.3929%-0.6365 "
      },
      "uniquefyingPropertyKeys": [],
      "allowedMutationTypes": [
        "DELETE",
        "EXTEND",
        "CHANGEBRANCH",
        "CHANGELINK",
        "ADDLINK",
        "DELETELINK",
        "DELETECHAIN"
      ],
      "vertexType": "MolecularFragment"
    },
    {
      "lstAPs": [
        {
          "id": 207295,
          "atomPositionNumber": 0,
          "atomPositionNumberInMol": 32,
          "apClass": {
            "rule": "SubArS",
            "subClass": 1,
            "bndTyp": "SINGLE"
          },
          "dirVec": {
            "x": 0.2973,
            "y": 0.3873,
            "z": -0.6389
          }
        }
      ],
      "lstSymAPs": [],
      "mol": {
        "atoms": [
          {
            "elSymbol": "C",
            "p3d": {
              "x": 1.6995,
              "y": 0.5593,
              "z": -1.2083
            }
          },
          {
            "elSymbol": "C",
            "p3d": {
              "x": 4.2563,
              "y": 0.8754,
              "z": -2.2592
            }
          },
          {
            "elSymbol": "C",
            "p3d": {
              "x": 2.3334,
              "y": 1.79,
              "z": -1.1338
            }
          },
          {
            "elSymbol": "C",
            "p3d": {
              "x": 2.3422,
              "y": -0.5107,
              "z": -1.8125
            }
          },
          {
            "elSymbol": "C",
            "p3d": {
              "x": 3.612,
              "y": -0.3527,
              "z": -2.3321
            }
          },
          {
            "elSymbol": "C",
            "p3d": {
              "x": 3.6062,
              "y": 1.9513,
              "z": -1.6526
            }
          },
          {
            "elSymbol": "H",
            "p3d": {
              "x": 1.833,
              "y": 2.6461,
              "z": -0.6488
            }
          },
          {
            "elSymbol": "H",
            "p3d": {
              "x": 1.8361,
              "y": -1.4773,
              "z": -1.887
            }
          },
          {
            "elSymbol": "H",
            "p3d": {
              "x": 4.115,
              "y": -1.2043,
              "z": -2.8152
            }
          },
          {
            "elSymbol": "H",
            "p3d": {
              "x": 4.1097,
              "y": 2.9214,
              "z": -1.5842
            }
          },
          {
            "elSymbol": "H",
            "p3d": {
              "x": 5.2498,
              "y": 0.9926,
              "z": -2.665
            }
          }
        ],
        "bonds": [
          {
            "atomIds": [
              0,
              3
            ],
            "bo": "SINGLE"
          },
          {
            "atomIds": [
              3,
              4
            ],
            "bo": "DOUBLE"
          },
          {
            "atomIds": [
              1,
              4
            ],
            "bo": "SINGLE"
          },
          {
            "atomIds": [
              1,
              5
            ],
            "bo": "DOUBLE"
          },
          {
            "atomIds": [
              2,
              5
            ],
            "bo": "SINGLE"
          },
          {
            "atomIds": [
              0,
              2
            ],
            "bo": "DOUBLE"
          },
          {
            "atomIds": [
              4,
              8
            ],
            "bo": "SINGLE"
          },
          {
            "atomIds": [
              5,
              9
            ],
            "bo": "SINGLE"
          },
          {
            "atomIds": [
              1,
              10
            ],
            "bo": "SINGLE"
          },
          {
            "atomIds": [
              2,
              6
            ],
            "bo": "SINGLE"
          },
          {
            "atomIds": [
              3,
              7
            ],
            "bo": "SINGLE"
          }
        ]
      },
      "vertexId": 158407,
      "buildingBlockId": 35,
      "buildingBlockType": "FRAGMENT",
      "isRCV": false,
      "properties": {
        "ATTACHMENT_POINTS": "1#SubArS:1:SINGLE:0.2973%0.3873%-0.6389 "
      },
      "uniquefyingPropertyKeys": [],
      "allowedMutationTypes": [
        "DELETE",
        "EXTEND",
        "CHANGEBRANCH",
        "CHANGELINK",
        "ADDLINK",
        "DELETELINK",
        "DELETECHAIN"
      ],
      "vertexType": "MolecularFragment"
    },
    {
      "lstAPs": [
        {
          "id": 207296,
          "atomPositionNumber": 0,
          "atomPositionNumberInMol": 43,
          "apClass": {
            "rule": "SubArS",
            "subClass": 1,
            "bndTyp": "SINGLE"
          },
          "dirVec": {
            "x": 0.2973,
            "y": 0.3873,
            "z": -0.6389
          }
        }
      ],
      "lstSymAPs": [],
      "mol": {
        "atoms": [
          {
            "elSymbol": "C",
            "p3d": {
              "x": 1.6995,
              "y": 0.5593,
              "z": -1.2083
            }
          },
          {
            "elSymbol": "C",
            "p3d": {
              "x": 4.2563,
              "y": 0.8754,
              "z": -2.2592
            }
          },
          {
            "elSymbol": "C",
            "p3d": {
              "x": 2.3334,
              "y": 1.79,
              "z": -1.1338
            }
          },
          {
            "elSymbol": "C",
            "p3d": {
              "x": 2.3422,
              "y": -0.5107,
              "z": -1.8125
            }
          },
          {
            "elSymbol": "C",
            "p3d": {
              "x": 3.612,
              "y": -0.3527,
              "z": -2.3321
            }
          },
          {
            "elSymbol": "C",
            "p3d": {
              "x": 3.6062,
              "y": 1.9513,
              "z": -1.6526
            }
          },
          {
            "elSymbol": "H",
            "p3d": {
              "x": 1.833,
              "y": 2.6461,
              "z": -0.6488
            }
          },
          {
            "elSymbol": "H",
            "p3d": {
              "x": 1.8361,
              "y": -1.4773,
              "z": -1.887
            }
          },
          {
            "elSymbol": "H",
            "p3d": {
              "x": 4.115,
              "y": -1.2043,
              "z": -2.8152
            }
          },
          {
            "elSymbol": "H",
            "p3d": {
              "x": 4.1097,
              "y": 2.9214,
              "z": -1.5842
            }
          },
          {
            "elSymbol": "H",
            "p3d": {
              "x": 5.2498,
              "y": 0.9926,
              "z": -2.665
            }
          }
        ],
        "bonds": [
          {
            "atomIds": [
              0,
              3
            ],
            "bo": "SINGLE"
          },
          {
            "atomIds": [
              3,
              4
            ],
            "bo": "DOUBLE"
          },
          {
            "atomIds": [
              1,
              4
            ],
            "bo": "SINGLE"
          },
          {
            "atomIds": [
              1,
              5
            ],
            "bo": "DOUBLE"
          },
          {
            "atomIds": [
              2,
              5
            ],
            "bo": "SINGLE"
          },
          {
            "atomIds": [
              0,
              2
            ],
            "bo": "DOUBLE"
          },
          {
            "atomIds": [
              4,
              8
            ],
            "bo": "SINGLE"
          },
          {
            "atomIds": [
              5,
              9
            ],
            "bo": "SINGLE"
          },
          {
            "atomIds": [
              1,
              10
            ],
            "bo": "SINGLE"
          },
          {
            "atomIds": [
              2,
              6
            ],
            "bo": "SINGLE"
          },
          {
            "atomIds": [
              3,
              7
            ],
            "bo": "SINGLE"
          }
        ]
      },
      "vertexId": 158009,
      "buildingBlockId": 35,
      "buildingBlockType": "FRAGMENT",
      "isRCV": false,
      "properties": {
        "ATTACHMENT_POINTS": "1#SubArS:1:SINGLE:0.2973%0.3873%-0.6389 "
      },
      "uniquefyingPropertyKeys": [],
      "allowedMutationTypes": [
        "DELETE",
        "EXTEND",
        "CHANGEBRANCH",
        "CHANGELINK",
        "ADDLINK",
        "DELETELINK",
        "DELETECHAIN"
      ],
      "vertexType": "MolecularFragment"
    }
  ],
  "gEdges": [
    {
      "srcAPID": 207249,
      "trgAPID": 207252,
      "bondType": "SINGLE"
    },
    {
      "srcAPID": 207251,
      "trgAPID": 207254,
      "bondType": "SINGLE"
    },
    {
      "srcAPID": 207250,
      "trgAPID": 207257,
      "bondType": "SINGLE"
    },
    {
      "srcAPID": 207253,
      "trgAPID": 207294,
      "bondType": "SINGLE"
    },
    {
      "srcAPID": 207256,
      "trgAPID": 207295,
      "bondType": "SINGLE"
    },
    {
      "srcAPID": 207255,
      "trgAPID": 207296,
      "bondType": "SINGLE"
    }
  ],
  "gRings": [],
  "symVertices": [
    {
      "symIds": [
        158407,
        158009
      ]
    }
  ]
}

> <SMILES>
[Pt](C#O)(C#N)([P]1(C(=C(C(=C1C=2C(=C(C(=C(C2[H])[H])[H])[H])[H])[H])[H])C=3C(=C(C(=C(C3[H])[H])[H])[H])[H])C4([H])C(C([H])([H])C(C([H])([H])C4([H])[H])([H])[H])([H])[H])SC([H])([H])[H]

$$$$
