M00004098
  CDK     04222210103D

 50 51  0  0  0  0  0  0  0  0999 V2000
   -2.5051   -0.1493   -0.1487 Pt  0  0  0  0  0  0  0  0  0  0  0  0
   -4.4490   -0.2873   -0.3741 C   0  0  0  0  0  0  0  0  0  0  0  0
   -5.5785   -0.3810   -0.5122 O   0  0  0  0  0  0  0  0  0  0  0  0
   -2.6618    1.7726   -0.8944 O   0  0  0  0  0  0  0  0  0  0  0  0
   -2.8581    2.6939    0.1499 C   0  0  0  0  0  0  0  0  0  0  0  0
   -3.1273    3.6442   -0.3334 H   0  0  0  0  0  0  0  0  0  0  0  0
   -1.9310    2.8111    0.7265 H   0  0  0  0  0  0  0  0  0  0  0  0
   -3.6744    2.3569    0.8018 H   0  0  0  0  0  0  0  0  0  0  0  0
    1.6686    0.4903    1.7737 C   0  0  0  0  0  0  0  0  0  0  0  0
    2.5981   -0.1167    1.6778 H   0  0  0  0  0  0  0  0  0  0  0  0
    1.6811    0.9280    2.7973 H   0  0  0  0  0  0  0  0  0  0  0  0
    1.6476    1.6268    0.7143 C   0  0  0  0  0  0  0  0  0  0  0  0
    1.4698    2.6085    1.2110 H   0  0  0  0  0  0  0  0  0  0  0  0
    2.6341    1.6980    0.2030 H   0  0  0  0  0  0  0  0  0  0  0  0
    0.4712   -0.3767    1.6108 N   0  0  0  0  0  0  0  0  0  0  0  0
    0.5738    1.3703   -0.2780 N   0  0  0  0  0  0  0  0  0  0  0  0
   -0.2497   -0.1109    0.0642 P   0  0  0  0  0  0  0  0  0  0  0  0
    1.1976    1.9156   -2.6152 C   0  0  0  0  0  0  0  0  0  0  0  0
    0.2920    2.2735   -1.4271 C   0  0  0  0  0  0  0  0  0  0  0  0
    0.4769    3.7422   -1.0276 C   0  0  0  0  0  0  0  0  0  0  0  0
   -0.1039    3.9879   -0.1306 H   0  0  0  0  0  0  0  0  0  0  0  0
    0.1177    4.3990   -1.8301 H   0  0  0  0  0  0  0  0  0  0  0  0
    1.5226    4.0017   -0.8395 H   0  0  0  0  0  0  0  0  0  0  0  0
    2.2587    2.0295   -2.3739 H   0  0  0  0  0  0  0  0  0  0  0  0
    1.0510    0.8784   -2.9399 H   0  0  0  0  0  0  0  0  0  0  0  0
    0.9824    2.5582   -3.4759 H   0  0  0  0  0  0  0  0  0  0  0  0
   -0.7963    2.1190   -1.7181 H   0  0  0  0  0  0  0  0  0  0  0  0
    0.3388   -1.3745   -1.1642 C   0  0  0  0  0  0  0  0  0  0  0  0
    1.1259   -3.2192   -3.0845 C   0  0  0  0  0  0  0  0  0  0  0  0
   -0.5514   -1.7181   -2.1835 C   0  0  0  0  0  0  0  0  0  0  0  0
    1.6100   -1.9381   -1.0838 C   0  0  0  0  0  0  0  0  0  0  0  0
    2.0042   -2.8684   -2.0537 C   0  0  0  0  0  0  0  0  0  0  0  0
   -0.1487   -2.6465   -3.1516 C   0  0  0  0  0  0  0  0  0  0  0  0
   -1.5626   -1.2891   -2.2442 H   0  0  0  0  0  0  0  0  0  0  0  0
    2.3039   -1.6785   -0.2827 H   0  0  0  0  0  0  0  0  0  0  0  0
    2.9921   -3.3219   -2.0035 H   0  0  0  0  0  0  0  0  0  0  0  0
   -0.8318   -2.9291   -3.9512 H   0  0  0  0  0  0  0  0  0  0  0  0
    1.4341   -3.9457   -3.8364 H   0  0  0  0  0  0  0  0  0  0  0  0
    0.0316   -0.6544    4.0447 C   0  0  0  0  0  0  0  0  0  0  0  0
    0.0329   -1.3291    2.6671 C   0  0  0  0  0  0  0  0  0  0  0  0
    0.9286   -2.5740    2.6585 C   0  0  0  0  0  0  0  0  0  0  0  0
    0.8821   -3.0921    1.6910 H   0  0  0  0  0  0  0  0  0  0  0  0
    0.5988   -3.2961    3.4154 H   0  0  0  0  0  0  0  0  0  0  0  0
    1.9769   -2.3381    2.8589 H   0  0  0  0  0  0  0  0  0  0  0  0
   -0.4590   -1.3006    4.7838 H   0  0  0  0  0  0  0  0  0  0  0  0
    1.0406   -0.4515    4.4168 H   0  0  0  0  0  0  0  0  0  0  0  0
   -0.5180    0.2944    4.0276 H   0  0  0  0  0  0  0  0  0  0  0  0
   -1.0246   -1.6400    2.4316 H   0  0  0  0  0  0  0  0  0  0  0  0
   -2.4571   -2.0328    0.4498 C   0  0  0  0  0  0  0  0  0  0  0  0
   -2.4553   -3.1401    0.7828 N   0  0  0  0  0  0  0  0  0  0  0  0
  2  3  3  0  0  0  0
  1  2  1  0  0  0  0
  5  6  1  0  0  0  0
  5  7  1  0  0  0  0
  5  8  1  0  0  0  0
  4  5  1  0  0  0  0
  1  4  1  0  0  0  0
  9 10  1  0  0  0  0
  9 15  1  0  0  0  0
 11  9  1  0  0  0  0
 12  9  1  0  0  0  0
 13 12  1  0  0  0  0
 14 12  1  0  0  0  0
 15 17  1  0  0  0  0
 16 12  1  0  0  0  0
 16 17  1  0  0  0  0
  1 17  1  0  0  0  0
 18 19  1  0  0  0  0
 19 20  1  0  0  0  0
 20 21  1  0  0  0  0
 20 22  1  0  0  0  0
 20 23  1  0  0  0  0
 18 24  1  0  0  0  0
 18 25  1  0  0  0  0
 18 26  1  0  0  0  0
 19 27  1  0  0  0  0
 16 19  1  0  0  0  0
 28 31  1  0  0  0  0
 31 32  2  0  0  0  0
 29 32  1  0  0  0  0
 29 33  2  0  0  0  0
 30 33  1  0  0  0  0
 28 30  2  0  0  0  0
 32 36  1  0  0  0  0
 33 37  1  0  0  0  0
 29 38  1  0  0  0  0
 30 34  1  0  0  0  0
 31 35  1  0  0  0  0
 17 28  1  0  0  0  0
 39 40  1  0  0  0  0
 40 41  1  0  0  0  0
 41 42  1  0  0  0  0
 41 43  1  0  0  0  0
 41 44  1  0  0  0  0
 39 45  1  0  0  0  0
 39 46  1  0  0  0  0
 39 47  1  0  0  0  0
 40 48  1  0  0  0  0
 15 40  1  0  0  0  0
 49 50  3  0  0  0  0
  1 49  1  0  0  0  0
M  END
> <PM6_ENERGY>
-151.575

> <UID>
LKQUZXDUXMAUTQ-ZJJKRFOQNA-N

> <FITNESS>
1.14176

> <GCODE>
4823

> <GraphENC>
4823 72_1_0,80_65_1,99_2_1,87_66_1,95058_33_1,94744_36_1,94733_33_1, 72_0_80_0_SINGLE_Xlig:0_Xlig:1,72_2_99_3_SINGLE_scaff:0_MBisAminoPhosphine:1,72_1_87_0_SINGLE_Xlig:0_Xlig:1,99_1_95058_0_SINGLE_LCycloBisAminoPhosphineSubN:0_SubRM:1,99_2_94744_0_SINGLE_LBisAminoPhosphineSubR:0_SubArS:1,99_0_94733_0_SINGLE_LCycloBisAminoPhosphineSubN:0_SubRM:1, SymmetricSet [symIds=[95058, 94733]] 

> <GraphJson>
{
  "graphId": 4823,
  "gVertices": [
    {
      "lstAPs": [
        {
          "id": 124989,
          "atomPositionNumber": 0,
          "atomPositionNumberInMol": 0,
          "apClass": {
            "rule": "Xlig",
            "subClass": 0,
            "bndTyp": "SINGLE"
          },
          "dirVec": {
            "x": -2.3339,
            "y": -0.0087,
            "z": 0.8172
          }
        },
        {
          "id": 124990,
          "atomPositionNumber": 0,
          "atomPositionNumberInMol": 0,
          "apClass": {
            "rule": "Xlig",
            "subClass": 0,
            "bndTyp": "SINGLE"
          },
          "dirVec": {
            "x": 2.336,
            "y": -5.0E-4,
            "z": 0.829
          }
        },
        {
          "id": 124991,
          "atomPositionNumber": 0,
          "atomPositionNumberInMol": 0,
          "apClass": {
            "rule": "scaff",
            "subClass": 0,
            "bndTyp": "SINGLE"
          },
          "dirVec": {
            "x": -0.0095,
            "y": 0.0046,
            "z": -1.7113
          }
        }
      ],
      "lstSymAPs": [
        {
          "symIds": [
            0,
            1
          ]
        }
      ],
      "mol": {
        "atoms": [
          {
            "elSymbol": "Pt",
            "p3d": {
              "x": -0.0098,
              "y": 0.0049,
              "z": 0.6289
            }
          },
          {
            "elSymbol": "C",
            "p3d": {
              "x": -6.0E-4,
              "y": 0.0016,
              "z": 2.5609
            }
          },
          {
            "elSymbol": "O",
            "p3d": {
              "x": 0.0025,
              "y": -0.0041,
              "z": 3.6974
            }
          },
          {
            "elSymbol": "Du",
            "p3d": {
              "x": -0.007,
              "y": 1.0013,
              "z": 0.6372
            }
          },
          {
            "elSymbol": "Du",
            "p3d": {
              "x": -0.0014,
              "y": 0.9902,
              "z": 2.5698
            }
          }
        ],
        "bonds": [
          {
            "atomIds": [
              1,
              2
            ],
            "bo": "TRIPLE"
          },
          {
            "atomIds": [
              0,
              1
            ],
            "bo": "SINGLE"
          },
          {
            "atomIds": [
              3,
              0
            ],
            "bo": "SINGLE"
          },
          {
            "atomIds": [
              4,
              1
            ],
            "bo": "SINGLE"
          }
        ]
      },
      "vertexId": 72,
      "buildingBlockId": 0,
      "buildingBlockType": "SCAFFOLD",
      "isRCV": false,
      "properties": {
        "ATTACHMENT_POINTS": "1#Xlig:0:SINGLE:-2.3339%-0.0087%0.8172,Xlig:0:SINGLE:2.3360%-0.0005%0.8290,scaff:0:SINGLE:-0.0095%0.0046%-1.7113 "
      },
      "uniquefyingPropertyKeys": [],
      "allowedMutationTypes": [
        "DELETE",
        "EXTEND",
        "CHANGEBRANCH",
        "CHANGELINK",
        "ADDLINK",
        "DELETELINK",
        "DELETECHAIN"
      ],
      "vertexType": "MolecularFragment"
    },
    {
      "lstAPs": [
        {
          "id": 124992,
          "atomPositionNumber": 0,
          "atomPositionNumberInMol": 5,
          "apClass": {
            "rule": "Xlig",
            "subClass": 1,
            "bndTyp": "SINGLE"
          },
          "dirVec": {
            "x": -0.1753,
            "y": 0.0948,
            "z": -0.4464
          }
        }
      ],
      "lstSymAPs": [],
      "mol": {
        "atoms": [
          {
            "elSymbol": "O",
            "p3d": {
              "x": -0.3534,
              "y": 2.1044,
              "z": -0.7339
            }
          },
          {
            "elSymbol": "C",
            "p3d": {
              "x": -0.5345,
              "y": 2.7646,
              "z": 0.4801
            }
          },
          {
            "elSymbol": "H",
            "p3d": {
              "x": -0.3728,
              "y": 3.8337,
              "z": 0.2724
            }
          },
          {
            "elSymbol": "H",
            "p3d": {
              "x": 0.1816,
              "y": 2.4161,
              "z": 1.2384
            }
          },
          {
            "elSymbol": "H",
            "p3d": {
              "x": -1.553,
              "y": 2.6149,
              "z": 0.8489
            }
          }
        ],
        "bonds": [
          {
            "atomIds": [
              1,
              2
            ],
            "bo": "SINGLE"
          },
          {
            "atomIds": [
              1,
              3
            ],
            "bo": "SINGLE"
          },
          {
            "atomIds": [
              1,
              4
            ],
            "bo": "SINGLE"
          },
          {
            "atomIds": [
              0,
              1
            ],
            "bo": "SINGLE"
          }
        ]
      },
      "vertexId": 80,
      "buildingBlockId": 64,
      "buildingBlockType": "FRAGMENT",
      "isRCV": false,
      "properties": {
        "ATTACHMENT_POINTS": "1#Xlig:1:SINGLE:-0.1753%0.0948%-0.4464 "
      },
      "uniquefyingPropertyKeys": [],
      "allowedMutationTypes": [
        "DELETE",
        "EXTEND",
        "CHANGEBRANCH",
        "CHANGELINK",
        "ADDLINK",
        "DELETELINK",
        "DELETECHAIN"
      ],
      "vertexType": "MolecularFragment"
    },
    {
      "lstAPs": [
        {
          "id": 124993,
          "atomPositionNumber": 6,
          "atomPositionNumberInMol": 16,
          "apClass": {
            "rule": "LCycloBisAminoPhosphineSubN",
            "subClass": 0,
            "bndTyp": "SINGLE"
          },
          "dirVec": {
            "x": 5.444,
            "y": 15.1509,
            "z": 1.4318
          }
        },
        {
          "id": 124994,
          "atomPositionNumber": 7,
          "atomPositionNumberInMol": 17,
          "apClass": {
            "rule": "LCycloBisAminoPhosphineSubN",
            "subClass": 0,
            "bndTyp": "SINGLE"
          },
          "dirVec": {
            "x": 6.0759,
            "y": 19.8798,
            "z": 3.3975
          }
        },
        {
          "id": 124995,
          "atomPositionNumber": 8,
          "atomPositionNumberInMol": 18,
          "apClass": {
            "rule": "LBisAminoPhosphineSubR",
            "subClass": 0,
            "bndTyp": "SINGLE"
          },
          "dirVec": {
            "x": 8.322,
            "y": 17.0114,
            "z": 3.3102
          }
        },
        {
          "id": 124996,
          "atomPositionNumber": 8,
          "atomPositionNumberInMol": 18,
          "apClass": {
            "rule": "MBisAminoPhosphine",
            "subClass": 1,
            "bndTyp": "SINGLE"
          },
          "dirVec": {
            "x": 7.5392,
            "y": 18.0219,
            "z": 0.2376
          }
        }
      ],
      "lstSymAPs": [
        {
          "symIds": [
            0,
            1
          ]
        }
      ],
      "mol": {
        "atoms": [
          {
            "elSymbol": "C",
            "p3d": {
              "x": 4.9306,
              "y": 16.3362,
              "z": 3.6097
            }
          },
          {
            "elSymbol": "H",
            "p3d": {
              "x": 5.41,
              "y": 15.9229,
              "z": 4.4964
            }
          },
          {
            "elSymbol": "H",
            "p3d": {
              "x": 3.9543,
              "y": 15.8675,
              "z": 3.4723
            }
          },
          {
            "elSymbol": "C",
            "p3d": {
              "x": 4.7677,
              "y": 17.836,
              "z": 3.7637
            }
          },
          {
            "elSymbol": "H",
            "p3d": {
              "x": 3.8551,
              "y": 18.1933,
              "z": 3.2482
            }
          },
          {
            "elSymbol": "H",
            "p3d": {
              "x": 4.6641,
              "y": 18.1095,
              "z": 4.8111
            }
          },
          {
            "elSymbol": "N",
            "p3d": {
              "x": 5.7767,
              "y": 16.1652,
              "z": 2.3965
            }
          },
          {
            "elSymbol": "N",
            "p3d": {
              "x": 5.9524,
              "y": 18.471,
              "z": 3.179
            }
          },
          {
            "elSymbol": "P",
            "p3d": {
              "x": 6.8638,
              "y": 17.4143,
              "z": 2.2309
            }
          }
        ],
        "bonds": [
          {
            "atomIds": [
              0,
              1
            ],
            "bo": "SINGLE"
          },
          {
            "atomIds": [
              0,
              6
            ],
            "bo": "SINGLE"
          },
          {
            "atomIds": [
              2,
              0
            ],
            "bo": "SINGLE"
          },
          {
            "atomIds": [
              3,
              0
            ],
            "bo": "SINGLE"
          },
          {
            "atomIds": [
              4,
              3
            ],
            "bo": "SINGLE"
          },
          {
            "atomIds": [
              5,
              3
            ],
            "bo": "SINGLE"
          },
          {
            "atomIds": [
              6,
              8
            ],
            "bo": "SINGLE"
          },
          {
            "atomIds": [
              7,
              3
            ],
            "bo": "SINGLE"
          },
          {
            "atomIds": [
              7,
              8
            ],
            "bo": "SINGLE"
          }
        ]
      },
      "vertexId": 99,
      "buildingBlockId": 1,
      "buildingBlockType": "FRAGMENT",
      "isRCV": false,
      "properties": {
        "ATTACHMENT_POINTS": "7#LCycloBisAminoPhosphineSubN:0:SINGLE:5.4440%15.1509%1.4318 8#LCycloBisAminoPhosphineSubN:0:SINGLE:6.0759%19.8798%3.3975 9#LBisAminoPhosphineSubR:0:SINGLE:8.3220%17.0114%3.3102,MBisAminoPhosphine:1:SINGLE:7.5392%18.0219%0.2376 "
      },
      "uniquefyingPropertyKeys": [],
      "allowedMutationTypes": [
        "DELETE",
        "EXTEND",
        "CHANGEBRANCH",
        "CHANGELINK",
        "ADDLINK",
        "DELETELINK",
        "DELETECHAIN"
      ],
      "vertexType": "MolecularFragment"
    },
    {
      "lstAPs": [
        {
          "id": 124997,
          "atomPositionNumber": 0,
          "atomPositionNumberInMol": 50,
          "apClass": {
            "rule": "Xlig",
            "subClass": 1,
            "bndTyp": "SINGLE"
          },
          "dirVec": {
            "x": 0.0192,
            "y": -0.0048,
            "z": -0.5645
          }
        }
      ],
      "lstSymAPs": [],
      "mol": {
        "atoms": [
          {
            "elSymbol": "C",
            "p3d": {
              "x": -1.967,
              "y": -0.0075,
              "z": -0.4937
            }
          },
          {
            "elSymbol": "N",
            "p3d": {
              "x": -3.1263,
              "y": -0.0054,
              "z": -0.4354
            }
          },
          {
            "elSymbol": "Du",
            "p3d": {
              "x": -1.9744,
              "y": 0.9926,
              "z": -0.5036
            }
          }
        ],
        "bonds": [
          {
            "atomIds": [
              0,
              1
            ],
            "bo": "TRIPLE"
          },
          {
            "atomIds": [
              2,
              0
            ],
            "bo": "SINGLE"
          }
        ]
      },
      "vertexId": 87,
      "buildingBlockId": 65,
      "buildingBlockType": "FRAGMENT",
      "isRCV": false,
      "properties": {
        "ATTACHMENT_POINTS": "1#Xlig:1:SINGLE:0.0192%-0.0048%-0.5645 "
      },
      "uniquefyingPropertyKeys": [],
      "allowedMutationTypes": [
        "DELETE",
        "EXTEND",
        "CHANGEBRANCH",
        "CHANGELINK",
        "ADDLINK",
        "DELETELINK",
        "DELETECHAIN"
      ],
      "vertexType": "MolecularFragment"
    },
    {
      "lstAPs": [
        {
          "id": 125034,
          "atomPositionNumber": 1,
          "atomPositionNumberInMol": 20,
          "apClass": {
            "rule": "SubRM",
            "subClass": 1,
            "bndTyp": "SINGLE"
          },
          "dirVec": {
            "x": 0.2868,
            "y": 0.385,
            "z": -0.643
          }
        }
      ],
      "lstSymAPs": [],
      "mol": {
        "atoms": [
          {
            "elSymbol": "C",
            "p3d": {
              "x": 1.141,
              "y": 1.0262,
              "z": 1.6347
            }
          },
          {
            "elSymbol": "C",
            "p3d": {
              "x": 0.3967,
              "y": -0.0479,
              "z": 0.8227
            }
          },
          {
            "elSymbol": "C",
            "p3d": {
              "x": 1.1459,
              "y": -1.371,
              "z": 0.9201
            }
          },
          {
            "elSymbol": "H",
            "p3d": {
              "x": 2.1461,
              "y": -1.2583,
              "z": 0.4976
            }
          },
          {
            "elSymbol": "H",
            "p3d": {
              "x": 0.6013,
              "y": -2.1408,
              "z": 0.3461
            }
          },
          {
            "elSymbol": "H",
            "p3d": {
              "x": 1.2113,
              "y": -1.6946,
              "z": 1.9559
            }
          },
          {
            "elSymbol": "H",
            "p3d": {
              "x": 2.1541,
              "y": 1.1435,
              "z": 1.2119
            }
          },
          {
            "elSymbol": "H",
            "p3d": {
              "x": 0.6143,
              "y": 1.976,
              "z": 1.5626
            }
          },
          {
            "elSymbol": "H",
            "p3d": {
              "x": 1.2058,
              "y": 0.7088,
              "z": 2.6868
            }
          },
          {
            "elSymbol": "H",
            "p3d": {
              "x": -0.6215,
              "y": -0.1789,
              "z": 1.2377
            }
          }
        ],
        "bonds": [
          {
            "atomIds": [
              0,
              1
            ],
            "bo": "SINGLE"
          },
          {
            "atomIds": [
              1,
              2
            ],
            "bo": "SINGLE"
          },
          {
            "atomIds": [
              2,
              3
            ],
            "bo": "SINGLE"
          },
          {
            "atomIds": [
              2,
              4
            ],
            "bo": "SINGLE"
          },
          {
            "atomIds": [
              2,
              5
            ],
            "bo": "SINGLE"
          },
          {
            "atomIds": [
              0,
              6
            ],
            "bo": "SINGLE"
          },
          {
            "atomIds": [
              0,
              7
            ],
            "bo": "SINGLE"
          },
          {
            "atomIds": [
              0,
              8
            ],
            "bo": "SINGLE"
          },
          {
            "atomIds": [
              1,
              9
            ],
            "bo": "SINGLE"
          }
        ]
      },
      "vertexId": 95058,
      "buildingBlockId": 32,
      "buildingBlockType": "FRAGMENT",
      "isRCV": false,
      "properties": {
        "ATTACHMENT_POINTS": "2#SubRM:1:SINGLE:0.2868%0.3850%-0.6430 "
      },
      "uniquefyingPropertyKeys": [],
      "allowedMutationTypes": [
        "DELETE",
        "EXTEND",
        "CHANGEBRANCH",
        "CHANGELINK",
        "ADDLINK",
        "DELETELINK",
        "DELETECHAIN"
      ],
      "vertexType": "MolecularFragment"
    },
    {
      "lstAPs": [
        {
          "id": 125035,
          "atomPositionNumber": 0,
          "atomPositionNumberInMol": 29,
          "apClass": {
            "rule": "SubArS",
            "subClass": 1,
            "bndTyp": "SINGLE"
          },
          "dirVec": {
            "x": 0.2973,
            "y": 0.3873,
            "z": -0.6389
          }
        }
      ],
      "lstSymAPs": [],
      "mol": {
        "atoms": [
          {
            "elSymbol": "C",
            "p3d": {
              "x": 1.6995,
              "y": 0.5593,
              "z": -1.2083
            }
          },
          {
            "elSymbol": "C",
            "p3d": {
              "x": 4.2563,
              "y": 0.8754,
              "z": -2.2592
            }
          },
          {
            "elSymbol": "C",
            "p3d": {
              "x": 2.3334,
              "y": 1.79,
              "z": -1.1338
            }
          },
          {
            "elSymbol": "C",
            "p3d": {
              "x": 2.3422,
              "y": -0.5107,
              "z": -1.8125
            }
          },
          {
            "elSymbol": "C",
            "p3d": {
              "x": 3.612,
              "y": -0.3527,
              "z": -2.3321
            }
          },
          {
            "elSymbol": "C",
            "p3d": {
              "x": 3.6062,
              "y": 1.9513,
              "z": -1.6526
            }
          },
          {
            "elSymbol": "H",
            "p3d": {
              "x": 1.833,
              "y": 2.6461,
              "z": -0.6488
            }
          },
          {
            "elSymbol": "H",
            "p3d": {
              "x": 1.8361,
              "y": -1.4773,
              "z": -1.887
            }
          },
          {
            "elSymbol": "H",
            "p3d": {
              "x": 4.115,
              "y": -1.2043,
              "z": -2.8152
            }
          },
          {
            "elSymbol": "H",
            "p3d": {
              "x": 4.1097,
              "y": 2.9214,
              "z": -1.5842
            }
          },
          {
            "elSymbol": "H",
            "p3d": {
              "x": 5.2498,
              "y": 0.9926,
              "z": -2.665
            }
          }
        ],
        "bonds": [
          {
            "atomIds": [
              0,
              3
            ],
            "bo": "SINGLE"
          },
          {
            "atomIds": [
              3,
              4
            ],
            "bo": "DOUBLE"
          },
          {
            "atomIds": [
              1,
              4
            ],
            "bo": "SINGLE"
          },
          {
            "atomIds": [
              1,
              5
            ],
            "bo": "DOUBLE"
          },
          {
            "atomIds": [
              2,
              5
            ],
            "bo": "SINGLE"
          },
          {
            "atomIds": [
              0,
              2
            ],
            "bo": "DOUBLE"
          },
          {
            "atomIds": [
              4,
              8
            ],
            "bo": "SINGLE"
          },
          {
            "atomIds": [
              5,
              9
            ],
            "bo": "SINGLE"
          },
          {
            "atomIds": [
              1,
              10
            ],
            "bo": "SINGLE"
          },
          {
            "atomIds": [
              2,
              6
            ],
            "bo": "SINGLE"
          },
          {
            "atomIds": [
              3,
              7
            ],
            "bo": "SINGLE"
          }
        ]
      },
      "vertexId": 94744,
      "buildingBlockId": 35,
      "buildingBlockType": "FRAGMENT",
      "isRCV": false,
      "properties": {
        "ATTACHMENT_POINTS": "1#SubArS:1:SINGLE:0.2973%0.3873%-0.6389 "
      },
      "uniquefyingPropertyKeys": [],
      "allowedMutationTypes": [
        "DELETE",
        "EXTEND",
        "CHANGEBRANCH",
        "CHANGELINK",
        "ADDLINK",
        "DELETELINK",
        "DELETECHAIN"
      ],
      "vertexType": "MolecularFragment"
    },
    {
      "lstAPs": [
        {
          "id": 125036,
          "atomPositionNumber": 1,
          "atomPositionNumberInMol": 41,
          "apClass": {
            "rule": "SubRM",
            "subClass": 1,
            "bndTyp": "SINGLE"
          },
          "dirVec": {
            "x": 0.2868,
            "y": 0.385,
            "z": -0.643
          }
        }
      ],
      "lstSymAPs": [],
      "mol": {
        "atoms": [
          {
            "elSymbol": "C",
            "p3d": {
              "x": 1.141,
              "y": 1.0262,
              "z": 1.6347
            }
          },
          {
            "elSymbol": "C",
            "p3d": {
              "x": 0.3967,
              "y": -0.0479,
              "z": 0.8227
            }
          },
          {
            "elSymbol": "C",
            "p3d": {
              "x": 1.1459,
              "y": -1.371,
              "z": 0.9201
            }
          },
          {
            "elSymbol": "H",
            "p3d": {
              "x": 2.1461,
              "y": -1.2583,
              "z": 0.4976
            }
          },
          {
            "elSymbol": "H",
            "p3d": {
              "x": 0.6013,
              "y": -2.1408,
              "z": 0.3461
            }
          },
          {
            "elSymbol": "H",
            "p3d": {
              "x": 1.2113,
              "y": -1.6946,
              "z": 1.9559
            }
          },
          {
            "elSymbol": "H",
            "p3d": {
              "x": 2.1541,
              "y": 1.1435,
              "z": 1.2119
            }
          },
          {
            "elSymbol": "H",
            "p3d": {
              "x": 0.6143,
              "y": 1.976,
              "z": 1.5626
            }
          },
          {
            "elSymbol": "H",
            "p3d": {
              "x": 1.2058,
              "y": 0.7088,
              "z": 2.6868
            }
          },
          {
            "elSymbol": "H",
            "p3d": {
              "x": -0.6215,
              "y": -0.1789,
              "z": 1.2377
            }
          }
        ],
        "bonds": [
          {
            "atomIds": [
              0,
              1
            ],
            "bo": "SINGLE"
          },
          {
            "atomIds": [
              1,
              2
            ],
            "bo": "SINGLE"
          },
          {
            "atomIds": [
              2,
              3
            ],
            "bo": "SINGLE"
          },
          {
            "atomIds": [
              2,
              4
            ],
            "bo": "SINGLE"
          },
          {
            "atomIds": [
              2,
              5
            ],
            "bo": "SINGLE"
          },
          {
            "atomIds": [
              0,
              6
            ],
            "bo": "SINGLE"
          },
          {
            "atomIds": [
              0,
              7
            ],
            "bo": "SINGLE"
          },
          {
            "atomIds": [
              0,
              8
            ],
            "bo": "SINGLE"
          },
          {
            "atomIds": [
              1,
              9
            ],
            "bo": "SINGLE"
          }
        ]
      },
      "vertexId": 94733,
      "buildingBlockId": 32,
      "buildingBlockType": "FRAGMENT",
      "isRCV": false,
      "properties": {
        "ATTACHMENT_POINTS": "2#SubRM:1:SINGLE:0.2868%0.3850%-0.6430 "
      },
      "uniquefyingPropertyKeys": [],
      "allowedMutationTypes": [
        "DELETE",
        "EXTEND",
        "CHANGEBRANCH",
        "CHANGELINK",
        "ADDLINK",
        "DELETELINK",
        "DELETECHAIN"
      ],
      "vertexType": "MolecularFragment"
    }
  ],
  "gEdges": [
    {
      "srcAPID": 124989,
      "trgAPID": 124992,
      "bondType": "SINGLE"
    },
    {
      "srcAPID": 124991,
      "trgAPID": 124996,
      "bondType": "SINGLE"
    },
    {
      "srcAPID": 124990,
      "trgAPID": 124997,
      "bondType": "SINGLE"
    },
    {
      "srcAPID": 124994,
      "trgAPID": 125034,
      "bondType": "SINGLE"
    },
    {
      "srcAPID": 124995,
      "trgAPID": 125035,
      "bondType": "SINGLE"
    },
    {
      "srcAPID": 124993,
      "trgAPID": 125036,
      "bondType": "SINGLE"
    }
  ],
  "gRings": [],
  "symVertices": [
    {
      "symIds": [
        95058,
        94733
      ]
    }
  ]
}

> <SMILES>
[Pt](C#O)(OC([H])([H])[H])([P]1(N(C([H])([H])C([H])([H])N1C(C([H])([H])[H])(C([H])([H])[H])[H])C(C([H])([H])[H])(C([H])([H])[H])[H])C=2C(=C(C(=C(C2[H])[H])[H])[H])[H])C#N

$$$$
