M00002904
  CDK     04222209443D

 57 59  0  0  0  0  0  0  0  0999 V2000
   -2.4349    0.0164    0.3126 Pt  0  0  0  0  0  0  0  0  0  0  0  0
   -4.3746   -0.0449    0.4833 C   0  0  0  0  0  0  0  0  0  0  0  0
   -5.5154   -0.0840    0.5801 O   0  0  0  0  0  0  0  0  0  0  0  0
   -2.6246    2.0428    0.0480 O   0  0  0  0  0  0  0  0  0  0  0  0
   -2.9951    2.3214   -1.2833 C   0  0  0  0  0  0  0  0  0  0  0  0
   -3.1774    3.4042   -1.3207 H   0  0  0  0  0  0  0  0  0  0  0  0
   -3.9115    1.7764   -1.5419 H   0  0  0  0  0  0  0  0  0  0  0  0
   -2.1804    2.0486   -1.9670 H   0  0  0  0  0  0  0  0  0  0  0  0
   -0.1685    0.0361    0.0640 P   0  0  0  0  0  0  0  0  0  0  0  0
    0.7625    0.1754    1.6681 C   0  0  0  0  0  0  0  0  0  0  0  0
    2.1689    0.3775    4.0818 C   0  0  0  0  0  0  0  0  0  0  0  0
    0.0573    0.2514    2.8809 C   0  0  0  0  0  0  0  0  0  0  0  0
    2.1700    0.2144    1.6559 C   0  0  0  0  0  0  0  0  0  0  0  0
    2.8647    0.3133    2.8738 C   0  0  0  0  0  0  0  0  0  0  0  0
    0.7779    0.3494    4.0888 C   0  0  0  0  0  0  0  0  0  0  0  0
    3.9515    0.3425    2.8793 H   0  0  0  0  0  0  0  0  0  0  0  0
    0.2410    0.4034    5.0337 H   0  0  0  0  0  0  0  0  0  0  0  0
    2.7179    0.4520    5.0214 H   0  0  0  0  0  0  0  0  0  0  0  0
   -1.4323    0.2367    2.9847 C   0  0  0  0  0  0  0  0  0  0  0  0
   -1.9135    1.0632    2.4159 H   0  0  0  0  0  0  0  0  0  0  0  0
   -1.7833    0.3575    4.0205 H   0  0  0  0  0  0  0  0  0  0  0  0
   -1.8640   -0.7327    2.6428 H   0  0  0  0  0  0  0  0  0  0  0  0
    3.0039    0.1691    0.4133 C   0  0  0  0  0  0  0  0  0  0  0  0
    2.8407    1.0614   -0.2132 H   0  0  0  0  0  0  0  0  0  0  0  0
    2.7972   -0.7159   -0.2069 H   0  0  0  0  0  0  0  0  0  0  0  0
    4.0799    0.1406    0.6331 H   0  0  0  0  0  0  0  0  0  0  0  0
    0.3520    1.3782   -0.9046 N   0  0  0  0  0  0  0  0  0  0  0  0
    0.8748    1.3758   -2.2935 C   0  0  0  0  0  0  0  0  0  0  0  0
    0.0683    1.1070   -3.0119 H   0  0  0  0  0  0  0  0  0  0  0  0
    1.7018    0.6414   -2.4169 H   0  0  0  0  0  0  0  0  0  0  0  0
    1.3634    2.8176   -2.5426 C   0  0  0  0  0  0  0  0  0  0  0  0
    2.4616    2.8794   -2.4515 H   0  0  0  0  0  0  0  0  0  0  0  0
    1.1105    3.1571   -3.5599 H   0  0  0  0  0  0  0  0  0  0  0  0
    0.6836    3.6951   -1.4749 C   0  0  0  0  0  0  0  0  0  0  0  0
   -0.2122    4.1895   -1.8922 H   0  0  0  0  0  0  0  0  0  0  0  0
    1.3528    4.4979   -1.1262 H   0  0  0  0  0  0  0  0  0  0  0  0
    0.2873    2.7523   -0.3235 C   0  0  0  0  0  0  0  0  0  0  0  0
    0.9912    2.8494    0.5319 H   0  0  0  0  0  0  0  0  0  0  0  0
   -0.7478    2.9740    0.0489 H   0  0  0  0  0  0  0  0  0  0  0  0
    0.3566   -1.4432   -0.6725 N   0  0  0  0  0  0  0  0  0  0  0  0
    0.6485   -2.6367    0.1754 C   0  0  0  0  0  0  0  0  0  0  0  0
   -0.2706   -2.9330    0.7434 H   0  0  0  0  0  0  0  0  0  0  0  0
    1.4505   -2.4197    0.9128 H   0  0  0  0  0  0  0  0  0  0  0  0
    1.0794   -3.7406   -0.8090 C   0  0  0  0  0  0  0  0  0  0  0  0
    2.1646   -3.9276   -0.7372 H   0  0  0  0  0  0  0  0  0  0  0  0
    0.5797   -4.6959   -0.5754 H   0  0  0  0  0  0  0  0  0  0  0  0
    0.7044   -3.2491   -2.2196 C   0  0  0  0  0  0  0  0  0  0  0  0
   -0.2329   -3.7275   -2.5556 H   0  0  0  0  0  0  0  0  0  0  0  0
    1.4781   -3.5165   -2.9570 H   0  0  0  0  0  0  0  0  0  0  0  0
    0.5258   -1.7204   -2.1201 C   0  0  0  0  0  0  0  0  0  0  0  0
    1.4258   -1.1930   -2.5148 H   0  0  0  0  0  0  0  0  0  0  0  0
   -0.3555   -1.3802   -2.7047 H   0  0  0  0  0  0  0  0  0  0  0  0
   -2.3195   -1.9696    0.8307 O   0  0  0  0  0  0  0  0  0  0  0  0
   -2.8064   -2.7723   -0.2196 C   0  0  0  0  0  0  0  0  0  0  0  0
   -2.6689   -3.8113    0.1100 H   0  0  0  0  0  0  0  0  0  0  0  0
   -2.2329   -2.5847   -1.1369 H   0  0  0  0  0  0  0  0  0  0  0  0
   -3.8725   -2.5697   -0.3821 H   0  0  0  0  0  0  0  0  0  0  0  0
  2  3  3  0  0  0  0
  1  2  1  0  0  0  0
  5  6  1  0  0  0  0
  5  7  1  0  0  0  0
  5  8  1  0  0  0  0
  4  5  1  0  0  0  0
  1  4  1  0  0  0  0
  1  9  1  0  0  0  0
 10 13  1  0  0  0  0
 13 14  2  0  0  0  0
 11 14  1  0  0  0  0
 11 15  2  0  0  0  0
 12 15  1  0  0  0  0
 10 12  2  0  0  0  0
 14 16  1  0  0  0  0
 15 17  1  0  0  0  0
 11 18  1  0  0  0  0
 19 20  1  0  0  0  0
 19 21  1  0  0  0  0
 19 22  1  0  0  0  0
 12 19  1  0  0  0  0
 23 24  1  0  0  0  0
 23 25  1  0  0  0  0
 23 26  1  0  0  0  0
 13 23  1  0  0  0  0
  9 10  1  0  0  0  0
 28 27  1  0  0  0  0
 29 28  1  0  0  0  0
 30 28  1  0  0  0  0
 31 28  1  0  0  0  0
 32 31  1  0  0  0  0
 33 31  1  0  0  0  0
 34 31  1  0  0  0  0
 35 34  1  0  0  0  0
 36 34  1  0  0  0  0
 37 27  1  0  0  0  0
 38 37  1  0  0  0  0
 39 37  1  0  0  0  0
 34 37  1  0  0  0  0
  9 27  1  0  0  0  0
 41 40  1  0  0  0  0
 42 41  1  0  0  0  0
 43 41  1  0  0  0  0
 44 41  1  0  0  0  0
 45 44  1  0  0  0  0
 46 44  1  0  0  0  0
 47 44  1  0  0  0  0
 48 47  1  0  0  0  0
 49 47  1  0  0  0  0
 50 40  1  0  0  0  0
 51 50  1  0  0  0  0
 52 50  1  0  0  0  0
 47 50  1  0  0  0  0
  9 40  1  0  0  0  0
 54 55  1  0  0  0  0
 54 56  1  0  0  0  0
 54 57  1  0  0  0  0
 53 54  1  0  0  0  0
  1 53  1  0  0  0  0
M  END
> <PM6_ENERGY>
-401.000

> <UID>
GWLKDEVPUFDMSU-QCHDYRCKNA-N

> <FITNESS>
1.14557

> <GCODE>
3567

> <GraphENC>
3567 72_1_0,80_65_1,100_3_1,86_65_1,68981_38_1,68967_7_1,69074_7_1, 72_0_80_0_SINGLE_Xlig:0_Xlig:1,72_2_100_3_SINGLE_scaff:0_MBisAminoPhosphine:1,72_1_86_0_SINGLE_Xlig:0_Xlig:1,100_2_68981_0_SINGLE_LBisAminoPhosphineSubR:0_SubArL:1,100_0_68967_0_SINGLE_LBisAminoPhosphineN:0_LAminoPhosphineCycloN:1,100_1_69074_0_SINGLE_LBisAminoPhosphineN:0_LAminoPhosphineCycloN:1, SymmetricSet [symIds=[68967, 69074]] 

> <GraphJson>
{
  "graphId": 3567,
  "gVertices": [
    {
      "lstAPs": [
        {
          "id": 91279,
          "atomPositionNumber": 0,
          "atomPositionNumberInMol": 0,
          "apClass": {
            "rule": "Xlig",
            "subClass": 0,
            "bndTyp": "SINGLE"
          },
          "dirVec": {
            "x": -2.3339,
            "y": -0.0087,
            "z": 0.8172
          }
        },
        {
          "id": 91280,
          "atomPositionNumber": 0,
          "atomPositionNumberInMol": 0,
          "apClass": {
            "rule": "Xlig",
            "subClass": 0,
            "bndTyp": "SINGLE"
          },
          "dirVec": {
            "x": 2.336,
            "y": -5.0E-4,
            "z": 0.829
          }
        },
        {
          "id": 91281,
          "atomPositionNumber": 0,
          "atomPositionNumberInMol": 0,
          "apClass": {
            "rule": "scaff",
            "subClass": 0,
            "bndTyp": "SINGLE"
          },
          "dirVec": {
            "x": -0.0095,
            "y": 0.0046,
            "z": -1.7113
          }
        }
      ],
      "lstSymAPs": [
        {
          "symIds": [
            0,
            1
          ]
        }
      ],
      "mol": {
        "atoms": [
          {
            "elSymbol": "Pt",
            "p3d": {
              "x": -0.0098,
              "y": 0.0049,
              "z": 0.6289
            }
          },
          {
            "elSymbol": "C",
            "p3d": {
              "x": -6.0E-4,
              "y": 0.0016,
              "z": 2.5609
            }
          },
          {
            "elSymbol": "O",
            "p3d": {
              "x": 0.0025,
              "y": -0.0041,
              "z": 3.6974
            }
          },
          {
            "elSymbol": "Du",
            "p3d": {
              "x": -0.007,
              "y": 1.0013,
              "z": 0.6372
            }
          },
          {
            "elSymbol": "Du",
            "p3d": {
              "x": -0.0014,
              "y": 0.9902,
              "z": 2.5698
            }
          }
        ],
        "bonds": [
          {
            "atomIds": [
              1,
              2
            ],
            "bo": "TRIPLE"
          },
          {
            "atomIds": [
              0,
              1
            ],
            "bo": "SINGLE"
          },
          {
            "atomIds": [
              3,
              0
            ],
            "bo": "SINGLE"
          },
          {
            "atomIds": [
              4,
              1
            ],
            "bo": "SINGLE"
          }
        ]
      },
      "vertexId": 72,
      "buildingBlockId": 0,
      "buildingBlockType": "SCAFFOLD",
      "isRCV": false,
      "properties": {
        "ATTACHMENT_POINTS": "1#Xlig:0:SINGLE:-2.3339%-0.0087%0.8172,Xlig:0:SINGLE:2.3360%-0.0005%0.8290,scaff:0:SINGLE:-0.0095%0.0046%-1.7113 "
      },
      "uniquefyingPropertyKeys": [],
      "allowedMutationTypes": [
        "DELETE",
        "EXTEND",
        "CHANGEBRANCH",
        "CHANGELINK",
        "ADDLINK",
        "DELETELINK",
        "DELETECHAIN"
      ],
      "vertexType": "MolecularFragment"
    },
    {
      "lstAPs": [
        {
          "id": 91282,
          "atomPositionNumber": 0,
          "atomPositionNumberInMol": 5,
          "apClass": {
            "rule": "Xlig",
            "subClass": 1,
            "bndTyp": "SINGLE"
          },
          "dirVec": {
            "x": -0.1753,
            "y": 0.0948,
            "z": -0.4464
          }
        }
      ],
      "lstSymAPs": [],
      "mol": {
        "atoms": [
          {
            "elSymbol": "O",
            "p3d": {
              "x": -0.3534,
              "y": 2.1044,
              "z": -0.7339
            }
          },
          {
            "elSymbol": "C",
            "p3d": {
              "x": -0.5345,
              "y": 2.7646,
              "z": 0.4801
            }
          },
          {
            "elSymbol": "H",
            "p3d": {
              "x": -0.3728,
              "y": 3.8337,
              "z": 0.2724
            }
          },
          {
            "elSymbol": "H",
            "p3d": {
              "x": 0.1816,
              "y": 2.4161,
              "z": 1.2384
            }
          },
          {
            "elSymbol": "H",
            "p3d": {
              "x": -1.553,
              "y": 2.6149,
              "z": 0.8489
            }
          }
        ],
        "bonds": [
          {
            "atomIds": [
              1,
              2
            ],
            "bo": "SINGLE"
          },
          {
            "atomIds": [
              1,
              3
            ],
            "bo": "SINGLE"
          },
          {
            "atomIds": [
              1,
              4
            ],
            "bo": "SINGLE"
          },
          {
            "atomIds": [
              0,
              1
            ],
            "bo": "SINGLE"
          }
        ]
      },
      "vertexId": 80,
      "buildingBlockId": 64,
      "buildingBlockType": "FRAGMENT",
      "isRCV": false,
      "properties": {
        "ATTACHMENT_POINTS": "1#Xlig:1:SINGLE:-0.1753%0.0948%-0.4464 "
      },
      "uniquefyingPropertyKeys": [],
      "allowedMutationTypes": [
        "DELETE",
        "EXTEND",
        "CHANGEBRANCH",
        "CHANGELINK",
        "ADDLINK",
        "DELETELINK",
        "DELETECHAIN"
      ],
      "vertexType": "MolecularFragment"
    },
    {
      "lstAPs": [
        {
          "id": 91283,
          "atomPositionNumber": 0,
          "atomPositionNumberInMol": 10,
          "apClass": {
            "rule": "LBisAminoPhosphineN",
            "subClass": 0,
            "bndTyp": "SINGLE"
          },
          "dirVec": {
            "x": -1.9272,
            "y": -0.2351,
            "z": 5.6045
          }
        },
        {
          "id": 91284,
          "atomPositionNumber": 0,
          "atomPositionNumberInMol": 10,
          "apClass": {
            "rule": "LBisAminoPhosphineN",
            "subClass": 0,
            "bndTyp": "SINGLE"
          },
          "dirVec": {
            "x": -1.4136,
            "y": -2.2231,
            "z": 3.8983
          }
        },
        {
          "id": 91285,
          "atomPositionNumber": 0,
          "atomPositionNumberInMol": 10,
          "apClass": {
            "rule": "LBisAminoPhosphineSubR",
            "subClass": 0,
            "bndTyp": "SINGLE"
          },
          "dirVec": {
            "x": -3.1852,
            "y": -0.3594,
            "z": 3.1924
          }
        },
        {
          "id": 91286,
          "atomPositionNumber": 0,
          "atomPositionNumberInMol": 10,
          "apClass": {
            "rule": "MBisAminoPhosphine",
            "subClass": 1,
            "bndTyp": "SINGLE"
          },
          "dirVec": {
            "x": 0.1796,
            "y": 0.6567,
            "z": 3.3484
          }
        }
      ],
      "lstSymAPs": [
        {
          "symIds": [
            0,
            1
          ]
        }
      ],
      "mol": {
        "atoms": [
          {
            "elSymbol": "P",
            "p3d": {
              "x": -1.6038,
              "y": -0.5663,
              "z": 4.0324
            }
          }
        ],
        "bonds": []
      },
      "vertexId": 100,
      "buildingBlockId": 2,
      "buildingBlockType": "FRAGMENT",
      "isRCV": false,
      "properties": {
        "ATTACHMENT_POINTS": "1#LBisAminoPhosphineN:0:SINGLE:-1.9272%-0.2351%5.6045,LBisAminoPhosphineN:0:SINGLE:-1.4136%-2.2231%3.8983,LBisAminoPhosphineSubR:0:SINGLE:-3.1852%-0.3594%3.1924,MBisAminoPhosphine:1:SINGLE:0.1796%0.6567%3.3484 "
      },
      "uniquefyingPropertyKeys": [],
      "allowedMutationTypes": [
        "DELETE",
        "EXTEND",
        "CHANGEBRANCH",
        "CHANGELINK",
        "ADDLINK",
        "DELETELINK",
        "DELETECHAIN"
      ],
      "vertexType": "MolecularFragment"
    },
    {
      "lstAPs": [
        {
          "id": 91287,
          "atomPositionNumber": 0,
          "atomPositionNumberInMol": 54,
          "apClass": {
            "rule": "Xlig",
            "subClass": 1,
            "bndTyp": "SINGLE"
          },
          "dirVec": {
            "x": -0.1753,
            "y": 0.0948,
            "z": -0.4464
          }
        }
      ],
      "lstSymAPs": [],
      "mol": {
        "atoms": [
          {
            "elSymbol": "O",
            "p3d": {
              "x": -0.3534,
              "y": 2.1044,
              "z": -0.7339
            }
          },
          {
            "elSymbol": "C",
            "p3d": {
              "x": -0.5345,
              "y": 2.7646,
              "z": 0.4801
            }
          },
          {
            "elSymbol": "H",
            "p3d": {
              "x": -0.3728,
              "y": 3.8337,
              "z": 0.2724
            }
          },
          {
            "elSymbol": "H",
            "p3d": {
              "x": 0.1816,
              "y": 2.4161,
              "z": 1.2384
            }
          },
          {
            "elSymbol": "H",
            "p3d": {
              "x": -1.553,
              "y": 2.6149,
              "z": 0.8489
            }
          }
        ],
        "bonds": [
          {
            "atomIds": [
              1,
              2
            ],
            "bo": "SINGLE"
          },
          {
            "atomIds": [
              1,
              3
            ],
            "bo": "SINGLE"
          },
          {
            "atomIds": [
              1,
              4
            ],
            "bo": "SINGLE"
          },
          {
            "atomIds": [
              0,
              1
            ],
            "bo": "SINGLE"
          }
        ]
      },
      "vertexId": 86,
      "buildingBlockId": 64,
      "buildingBlockType": "FRAGMENT",
      "isRCV": false,
      "properties": {
        "ATTACHMENT_POINTS": "1#Xlig:1:SINGLE:-0.1753%0.0948%-0.4464 "
      },
      "uniquefyingPropertyKeys": [],
      "allowedMutationTypes": [
        "DELETE",
        "EXTEND",
        "CHANGEBRANCH",
        "CHANGELINK",
        "ADDLINK",
        "DELETELINK",
        "DELETECHAIN"
      ],
      "vertexType": "MolecularFragment"
    },
    {
      "lstAPs": [
        {
          "id": 91324,
          "atomPositionNumber": 0,
          "atomPositionNumberInMol": 11,
          "apClass": {
            "rule": "SubArL",
            "subClass": 1,
            "bndTyp": "SINGLE"
          },
          "dirVec": {
            "x": 0.2957,
            "y": 0.3816,
            "z": -0.6358
          }
        }
      ],
      "lstSymAPs": [],
      "mol": {
        "atoms": [
          {
            "elSymbol": "C",
            "p3d": {
              "x": 1.7088,
              "y": 0.551,
              "z": -1.2192
            }
          },
          {
            "elSymbol": "C",
            "p3d": {
              "x": 4.2535,
              "y": 0.8673,
              "z": -2.2548
            }
          },
          {
            "elSymbol": "C",
            "p3d": {
              "x": 2.3329,
              "y": 1.7979,
              "z": -1.1377
            }
          },
          {
            "elSymbol": "C",
            "p3d": {
              "x": 2.3315,
              "y": -0.5114,
              "z": -1.8171
            }
          },
          {
            "elSymbol": "C",
            "p3d": {
              "x": 3.6062,
              "y": -0.3595,
              "z": -2.3299
            }
          },
          {
            "elSymbol": "C",
            "p3d": {
              "x": 3.6205,
              "y": 1.9526,
              "z": -1.657
            }
          },
          {
            "elSymbol": "H",
            "p3d": {
              "x": 4.116,
              "y": -1.2062,
              "z": -2.8187
            }
          },
          {
            "elSymbol": "H",
            "p3d": {
              "x": 4.1193,
              "y": 2.9144,
              "z": -1.5883
            }
          },
          {
            "elSymbol": "H",
            "p3d": {
              "x": 5.2485,
              "y": 0.9961,
              "z": -2.6688
            }
          },
          {
            "elSymbol": "C",
            "p3d": {
              "x": 1.6389,
              "y": 2.9732,
              "z": -0.4581
            }
          },
          {
            "elSymbol": "H",
            "p3d": {
              "x": 2.3787,
              "y": 3.6649,
              "z": -0.0604
            }
          },
          {
            "elSymbol": "H",
            "p3d": {
              "x": 1.0049,
              "y": 2.601,
              "z": 0.3676
            }
          },
          {
            "elSymbol": "H",
            "p3d": {
              "x": 1.0013,
              "y": 3.4961,
              "z": -1.199
            }
          },
          {
            "elSymbol": "C",
            "p3d": {
              "x": 1.6397,
              "y": -1.8757,
              "z": -1.9164
            }
          },
          {
            "elSymbol": "H",
            "p3d": {
              "x": 2.3747,
              "y": -2.6603,
              "z": -1.9613
            }
          },
          {
            "elSymbol": "H",
            "p3d": {
              "x": 1.0044,
              "y": -1.9015,
              "z": -2.8054
            }
          },
          {
            "elSymbol": "H",
            "p3d": {
              "x": 1.0057,
              "y": -2.0243,
              "z": -1.0149
            }
          }
        ],
        "bonds": [
          {
            "atomIds": [
              0,
              3
            ],
            "bo": "SINGLE"
          },
          {
            "atomIds": [
              3,
              4
            ],
            "bo": "DOUBLE"
          },
          {
            "atomIds": [
              1,
              4
            ],
            "bo": "SINGLE"
          },
          {
            "atomIds": [
              1,
              5
            ],
            "bo": "DOUBLE"
          },
          {
            "atomIds": [
              2,
              5
            ],
            "bo": "SINGLE"
          },
          {
            "atomIds": [
              0,
              2
            ],
            "bo": "DOUBLE"
          },
          {
            "atomIds": [
              4,
              6
            ],
            "bo": "SINGLE"
          },
          {
            "atomIds": [
              5,
              7
            ],
            "bo": "SINGLE"
          },
          {
            "atomIds": [
              1,
              8
            ],
            "bo": "SINGLE"
          },
          {
            "atomIds": [
              9,
              10
            ],
            "bo": "SINGLE"
          },
          {
            "atomIds": [
              9,
              11
            ],
            "bo": "SINGLE"
          },
          {
            "atomIds": [
              9,
              12
            ],
            "bo": "SINGLE"
          },
          {
            "atomIds": [
              2,
              9
            ],
            "bo": "SINGLE"
          },
          {
            "atomIds": [
              13,
              14
            ],
            "bo": "SINGLE"
          },
          {
            "atomIds": [
              13,
              15
            ],
            "bo": "SINGLE"
          },
          {
            "atomIds": [
              13,
              16
            ],
            "bo": "SINGLE"
          },
          {
            "atomIds": [
              3,
              13
            ],
            "bo": "SINGLE"
          }
        ]
      },
      "vertexId": 68981,
      "buildingBlockId": 37,
      "buildingBlockType": "FRAGMENT",
      "isRCV": false,
      "properties": {
        "ATTACHMENT_POINTS": "1#SubArL:1:SINGLE:0.2957%0.3816%-0.6358 "
      },
      "uniquefyingPropertyKeys": [],
      "allowedMutationTypes": [
        "DELETE",
        "EXTEND",
        "CHANGEBRANCH",
        "CHANGELINK",
        "ADDLINK",
        "DELETELINK",
        "DELETECHAIN"
      ],
      "vertexType": "MolecularFragment"
    },
    {
      "lstAPs": [
        {
          "id": 91325,
          "atomPositionNumber": 0,
          "atomPositionNumberInMol": 28,
          "apClass": {
            "rule": "LAminoPhosphineCycloN",
            "subClass": 1,
            "bndTyp": "SINGLE"
          },
          "dirVec": {
            "x": -1.0842,
            "y": 2.354,
            "z": 2.6746
          }
        }
      ],
      "lstSymAPs": [],
      "mol": {
        "atoms": [
          {
            "elSymbol": "N",
            "p3d": {
              "x": -2.0922,
              "y": 2.0012,
              "z": 1.4169
            }
          },
          {
            "elSymbol": "C",
            "p3d": {
              "x": -3.1902,
              "y": 2.8736,
              "z": 0.9976
            }
          },
          {
            "elSymbol": "H",
            "p3d": {
              "x": -2.8134,
              "y": 3.8695,
              "z": 0.7407
            }
          },
          {
            "elSymbol": "H",
            "p3d": {
              "x": -3.9276,
              "y": 2.975,
              "z": 1.7817
            }
          },
          {
            "elSymbol": "C",
            "p3d": {
              "x": -3.7598,
              "y": 2.1938,
              "z": -0.2148
            }
          },
          {
            "elSymbol": "H",
            "p3d": {
              "x": -4.5232,
              "y": 1.4545,
              "z": 0.0879
            }
          },
          {
            "elSymbol": "H",
            "p3d": {
              "x": -4.218,
              "y": 2.9166,
              "z": -0.8771
            }
          },
          {
            "elSymbol": "C",
            "p3d": {
              "x": -2.6022,
              "y": 1.5522,
              "z": -0.816
            }
          },
          {
            "elSymbol": "H",
            "p3d": {
              "x": -2.0593,
              "y": 2.2535,
              "z": -1.4546
            }
          },
          {
            "elSymbol": "H",
            "p3d": {
              "x": -2.9084,
              "y": 0.6969,
              "z": -1.4358
            }
          },
          {
            "elSymbol": "C",
            "p3d": {
              "x": -1.7245,
              "y": 1.0767,
              "z": 0.3024
            }
          },
          {
            "elSymbol": "H",
            "p3d": {
              "x": -1.937,
              "y": 0.0454,
              "z": 0.5649
            }
          },
          {
            "elSymbol": "H",
            "p3d": {
              "x": -0.6676,
              "y": 1.1814,
              "z": 0.0388
            }
          }
        ],
        "bonds": [
          {
            "atomIds": [
              1,
              0
            ],
            "bo": "SINGLE"
          },
          {
            "atomIds": [
              2,
              1
            ],
            "bo": "SINGLE"
          },
          {
            "atomIds": [
              3,
              1
            ],
            "bo": "SINGLE"
          },
          {
            "atomIds": [
              4,
              1
            ],
            "bo": "SINGLE"
          },
          {
            "atomIds": [
              5,
              4
            ],
            "bo": "SINGLE"
          },
          {
            "atomIds": [
              6,
              4
            ],
            "bo": "SINGLE"
          },
          {
            "atomIds": [
              7,
              4
            ],
            "bo": "SINGLE"
          },
          {
            "atomIds": [
              8,
              7
            ],
            "bo": "SINGLE"
          },
          {
            "atomIds": [
              9,
              7
            ],
            "bo": "SINGLE"
          },
          {
            "atomIds": [
              10,
              0
            ],
            "bo": "SINGLE"
          },
          {
            "atomIds": [
              11,
              10
            ],
            "bo": "SINGLE"
          },
          {
            "atomIds": [
              12,
              10
            ],
            "bo": "SINGLE"
          },
          {
            "atomIds": [
              7,
              10
            ],
            "bo": "SINGLE"
          }
        ]
      },
      "vertexId": 68967,
      "buildingBlockId": 6,
      "buildingBlockType": "FRAGMENT",
      "isRCV": false,
      "properties": {
        "ATTACHMENT_POINTS": "1#LAminoPhosphineCycloN:1:SINGLE:-1.0842%2.3540%2.6746 "
      },
      "uniquefyingPropertyKeys": [],
      "allowedMutationTypes": [
        "DELETE",
        "EXTEND",
        "CHANGEBRANCH",
        "CHANGELINK",
        "ADDLINK",
        "DELETELINK",
        "DELETECHAIN"
      ],
      "vertexType": "MolecularFragment"
    },
    {
      "lstAPs": [
        {
          "id": 91326,
          "atomPositionNumber": 0,
          "atomPositionNumberInMol": 41,
          "apClass": {
            "rule": "LAminoPhosphineCycloN",
            "subClass": 1,
            "bndTyp": "SINGLE"
          },
          "dirVec": {
            "x": -1.0842,
            "y": 2.354,
            "z": 2.6746
          }
        }
      ],
      "lstSymAPs": [],
      "mol": {
        "atoms": [
          {
            "elSymbol": "N",
            "p3d": {
              "x": -2.0922,
              "y": 2.0012,
              "z": 1.4169
            }
          },
          {
            "elSymbol": "C",
            "p3d": {
              "x": -3.1902,
              "y": 2.8736,
              "z": 0.9976
            }
          },
          {
            "elSymbol": "H",
            "p3d": {
              "x": -2.8134,
              "y": 3.8695,
              "z": 0.7407
            }
          },
          {
            "elSymbol": "H",
            "p3d": {
              "x": -3.9276,
              "y": 2.975,
              "z": 1.7817
            }
          },
          {
            "elSymbol": "C",
            "p3d": {
              "x": -3.7598,
              "y": 2.1938,
              "z": -0.2148
            }
          },
          {
            "elSymbol": "H",
            "p3d": {
              "x": -4.5232,
              "y": 1.4545,
              "z": 0.0879
            }
          },
          {
            "elSymbol": "H",
            "p3d": {
              "x": -4.218,
              "y": 2.9166,
              "z": -0.8771
            }
          },
          {
            "elSymbol": "C",
            "p3d": {
              "x": -2.6022,
              "y": 1.5522,
              "z": -0.816
            }
          },
          {
            "elSymbol": "H",
            "p3d": {
              "x": -2.0593,
              "y": 2.2535,
              "z": -1.4546
            }
          },
          {
            "elSymbol": "H",
            "p3d": {
              "x": -2.9084,
              "y": 0.6969,
              "z": -1.4358
            }
          },
          {
            "elSymbol": "C",
            "p3d": {
              "x": -1.7245,
              "y": 1.0767,
              "z": 0.3024
            }
          },
          {
            "elSymbol": "H",
            "p3d": {
              "x": -1.937,
              "y": 0.0454,
              "z": 0.5649
            }
          },
          {
            "elSymbol": "H",
            "p3d": {
              "x": -0.6676,
              "y": 1.1814,
              "z": 0.0388
            }
          }
        ],
        "bonds": [
          {
            "atomIds": [
              1,
              0
            ],
            "bo": "SINGLE"
          },
          {
            "atomIds": [
              2,
              1
            ],
            "bo": "SINGLE"
          },
          {
            "atomIds": [
              3,
              1
            ],
            "bo": "SINGLE"
          },
          {
            "atomIds": [
              4,
              1
            ],
            "bo": "SINGLE"
          },
          {
            "atomIds": [
              5,
              4
            ],
            "bo": "SINGLE"
          },
          {
            "atomIds": [
              6,
              4
            ],
            "bo": "SINGLE"
          },
          {
            "atomIds": [
              7,
              4
            ],
            "bo": "SINGLE"
          },
          {
            "atomIds": [
              8,
              7
            ],
            "bo": "SINGLE"
          },
          {
            "atomIds": [
              9,
              7
            ],
            "bo": "SINGLE"
          },
          {
            "atomIds": [
              10,
              0
            ],
            "bo": "SINGLE"
          },
          {
            "atomIds": [
              11,
              10
            ],
            "bo": "SINGLE"
          },
          {
            "atomIds": [
              12,
              10
            ],
            "bo": "SINGLE"
          },
          {
            "atomIds": [
              7,
              10
            ],
            "bo": "SINGLE"
          }
        ]
      },
      "vertexId": 69074,
      "buildingBlockId": 6,
      "buildingBlockType": "FRAGMENT",
      "isRCV": false,
      "properties": {
        "ATTACHMENT_POINTS": "1#LAminoPhosphineCycloN:1:SINGLE:-1.0842%2.3540%2.6746 "
      },
      "uniquefyingPropertyKeys": [],
      "allowedMutationTypes": [
        "DELETE",
        "EXTEND",
        "CHANGEBRANCH",
        "CHANGELINK",
        "ADDLINK",
        "DELETELINK",
        "DELETECHAIN"
      ],
      "vertexType": "MolecularFragment"
    }
  ],
  "gEdges": [
    {
      "srcAPID": 91279,
      "trgAPID": 91282,
      "bondType": "SINGLE"
    },
    {
      "srcAPID": 91281,
      "trgAPID": 91286,
      "bondType": "SINGLE"
    },
    {
      "srcAPID": 91280,
      "trgAPID": 91287,
      "bondType": "SINGLE"
    },
    {
      "srcAPID": 91285,
      "trgAPID": 91324,
      "bondType": "SINGLE"
    },
    {
      "srcAPID": 91283,
      "trgAPID": 91325,
      "bondType": "SINGLE"
    },
    {
      "srcAPID": 91284,
      "trgAPID": 91326,
      "bondType": "SINGLE"
    }
  ],
  "gRings": [],
  "symVertices": [
    {
      "symIds": [
        68967,
        69074
      ]
    }
  ]
}

> <SMILES>
[Pt](C#O)(OC([H])([H])[H])([P](C=1C(=C(C(=C(C1C([H])([H])[H])[H])[H])[H])C([H])([H])[H])(N2C([H])([H])C([H])([H])C([H])([H])C2([H])[H])N3C([H])([H])C([H])([H])C([H])([H])C3([H])[H])OC([H])([H])[H]

$$$$
