M00010351
  CDK     04222212233D

 67 73  0  0  0  0  0  0  0  0999 V2000
   -3.4269   -0.0567   -1.0988 Pt  0  0  0  0  0  0  0  0  0  0  0  0
   -5.3126   -0.0715   -1.4539 C   0  0  0  0  0  0  0  0  0  0  0  0
   -6.4338   -0.0807   -1.6825 O   0  0  0  0  0  0  0  0  0  0  0  0
   -3.7129    0.0340    0.8591 C   0  0  0  0  0  0  0  0  0  0  0  0
   -3.8557    0.0857    2.0046 N   0  0  0  0  0  0  0  0  0  0  0  0
   -1.4362   -0.0396   -0.7669 C   0  0  1  0  0  0  0  0  0  0  0  0
   -0.6026   -1.1372   -0.6437 N   0  0  0  0  0  0  0  0  0  0  0  0
    0.7419   -0.6961   -0.4754 C   0  0  0  0  0  0  0  0  0  0  0  0
    0.7203    0.6960   -0.4892 C   0  0  0  0  0  0  0  0  0  0  0  0
   -0.6385    1.0887   -0.6628 N   0  0  0  0  0  0  0  0  0  0  0  0
    1.8285    1.6491   -0.4142 C   0  0  0  0  0  0  0  0  0  0  0  0
    2.0586    2.5361   -1.4788 C   0  0  0  0  0  0  0  0  0  0  0  0
    1.4076    2.5211   -2.3534 H   0  0  0  0  0  0  0  0  0  0  0  0
    3.1248    3.4359   -1.4128 C   0  0  0  0  0  0  0  0  0  0  0  0
    3.3043    4.1241   -2.2384 H   0  0  0  0  0  0  0  0  0  0  0  0
    3.9603    3.4557   -0.2911 C   0  0  0  0  0  0  0  0  0  0  0  0
    4.7905    4.1593   -0.2432 H   0  0  0  0  0  0  0  0  0  0  0  0
    3.7295    2.5735    0.7693 C   0  0  0  0  0  0  0  0  0  0  0  0
    4.3799    2.5909    1.6428 H   0  0  0  0  0  0  0  0  0  0  0  0
    2.6653    1.6703    0.7126 C   0  0  0  0  0  0  0  0  0  0  0  0
    2.4857    0.9849    1.5402 H   0  0  0  0  0  0  0  0  0  0  0  0
   -1.8947    2.1660   -2.7403 H   0  0  0  0  0  0  0  0  0  0  0  0
   -1.7516    2.8542   -1.8983 C   0  0  0  0  0  0  0  0  0  0  0  0
   -1.1350    2.4502   -0.7321 C   0  0  0  0  0  0  0  0  0  0  0  0
   -2.0446    5.0832   -0.9872 C   0  0  0  0  0  0  0  0  0  0  0  0
   -0.9778    3.3345    0.3925 C   0  0  0  0  0  0  0  0  0  0  0  0
   -2.2119    4.1944   -2.0189 C   0  0  0  0  0  0  0  0  0  0  0  0
   -1.4303    4.6731    0.2389 C   0  0  0  0  0  0  0  0  0  0  0  0
   -0.4194    2.9323    1.6462 C   0  0  0  0  0  0  0  0  0  0  0  0
   -2.6962    4.4942   -2.9494 H   0  0  0  0  0  0  0  0  0  0  0  0
   -1.6186    6.6177    1.1937 H   0  0  0  0  0  0  0  0  0  0  0  0
   -2.3860    6.1149   -1.0796 H   0  0  0  0  0  0  0  0  0  0  0  0
   -0.2958    3.8318    2.6754 C   0  0  0  0  0  0  0  0  0  0  0  0
   -0.1077    1.8968    1.7808 H   0  0  0  0  0  0  0  0  0  0  0  0
    0.1212    3.5268    3.6349 H   0  0  0  0  0  0  0  0  0  0  0  0
   -0.7227    5.1815    2.5120 C   0  0  0  0  0  0  0  0  0  0  0  0
   -0.6074    5.8731    3.3461 H   0  0  0  0  0  0  0  0  0  0  0  0
   -1.2780    5.5914    1.3267 C   0  0  0  0  0  0  0  0  0  0  0  0
    1.8758   -1.6165   -0.3748 C   0  0  0  0  0  0  0  0  0  0  0  0
    2.2013   -2.4401   -1.4648 C   0  0  0  0  0  0  0  0  0  0  0  0
    1.6067   -2.3984   -2.3777 H   0  0  0  0  0  0  0  0  0  0  0  0
    3.2898   -3.3108   -1.3739 C   0  0  0  0  0  0  0  0  0  0  0  0
    3.5441   -3.9499   -2.2190 H   0  0  0  0  0  0  0  0  0  0  0  0
    4.0517   -3.3643   -0.2021 C   0  0  0  0  0  0  0  0  0  0  0  0
    4.8995   -4.0451   -0.1349 H   0  0  0  0  0  0  0  0  0  0  0  0
    3.7249   -2.5456    0.8838 C   0  0  0  0  0  0  0  0  0  0  0  0
    4.3176   -2.5903    1.7966 H   0  0  0  0  0  0  0  0  0  0  0  0
    2.6379   -1.6718    0.8024 C   0  0  0  0  0  0  0  0  0  0  0  0
    2.3816   -1.0373    1.6501 H   0  0  0  0  0  0  0  0  0  0  0  0
   -1.6564   -2.3641   -2.7568 H   0  0  0  0  0  0  0  0  0  0  0  0
   -1.5465   -3.0058   -1.8746 C   0  0  0  0  0  0  0  0  0  0  0  0
   -1.0383   -2.5207   -0.6880 C   0  0  0  0  0  0  0  0  0  0  0  0
   -1.8142   -5.2012   -0.8771 C   0  0  0  0  0  0  0  0  0  0  0  0
   -0.9214   -3.3457    0.4856 C   0  0  0  0  0  0  0  0  0  0  0  0
   -1.9414   -4.3696   -1.9609 C   0  0  0  0  0  0  0  0  0  0  0  0
   -1.3060   -4.7086    0.3672 C   0  0  0  0  0  0  0  0  0  0  0  0
   -0.4630   -2.8620    1.7510 C   0  0  0  0  0  0  0  0  0  0  0  0
   -2.3443   -4.7332   -2.9073 H   0  0  0  0  0  0  0  0  0  0  0  0
   -1.4802   -6.6134    1.4020 H   0  0  0  0  0  0  0  0  0  0  0  0
   -2.1063   -6.2499   -0.9421 H   0  0  0  0  0  0  0  0  0  0  0  0
   -0.3720   -3.7072    2.8285 C   0  0  0  0  0  0  0  0  0  0  0  0
   -0.2024   -1.8089    1.8538 H   0  0  0  0  0  0  0  0  0  0  0  0
   -0.0320   -3.3409    3.7969 H   0  0  0  0  0  0  0  0  0  0  0  0
   -0.7334   -5.0801    2.7039 C   0  0  0  0  0  0  0  0  0  0  0  0
   -0.6468   -5.7268    3.5766 H   0  0  0  0  0  0  0  0  0  0  0  0
   -1.1910   -5.5680    1.5064 C   0  0  0  0  0  0  0  0  0  0  0  0
   -3.0567   -0.1633   -3.4158 Cl  0  0  0  0  0  0  0  0  0  0  0  0
  2  3  3  0  0  0  0
  1  2  1  0  0  0  0
  4  5  3  0  0  0  0
  1  4  1  0  0  0  0
  7  6  1  0  0  0  0
  8  7  1  0  0  0  0
  9  8  2  0  0  0  0
  9 10  1  0  0  0  0
 10  6  1  0  0  0  0
  1  6  1  0  0  0  0
 12 11  1  0  0  0  0
 13 12  1  0  0  0  0
 14 12  2  0  0  0  0
 15 14  1  0  0  0  0
 16 14  1  0  0  0  0
 17 16  1  0  0  0  0
 18 16  2  0  0  0  0
 19 18  1  0  0  0  0
 20 11  2  0  0  0  0
 21 20  1  0  0  0  0
 18 20  1  0  0  0  0
  9 11  1  0  0  0  0
 22 23  1  0  0  0  0
 23 24  1  0  0  0  0
 23 27  2  0  0  0  0
 24 26  2  0  0  0  0
 26 28  1  0  0  0  0
 25 27  1  0  0  0  0
 25 28  2  0  0  0  0
 29 26  1  0  0  0  0
 28 38  1  0  0  0  0
 29 33  2  0  0  0  0
 33 36  1  0  0  0  0
 36 38  2  0  0  0  0
 25 32  1  0  0  0  0
 27 30  1  0  0  0  0
 29 34  1  0  0  0  0
 31 38  1  0  0  0  0
 36 37  1  0  0  0  0
 33 35  1  0  0  0  0
 10 24  1  0  0  0  0
 40 39  1  0  0  0  0
 41 40  1  0  0  0  0
 42 40  2  0  0  0  0
 43 42  1  0  0  0  0
 44 42  1  0  0  0  0
 45 44  1  0  0  0  0
 46 44  2  0  0  0  0
 47 46  1  0  0  0  0
 48 39  2  0  0  0  0
 49 48  1  0  0  0  0
 46 48  1  0  0  0  0
  8 39  1  0  0  0  0
 50 51  1  0  0  0  0
 51 52  1  0  0  0  0
 51 55  2  0  0  0  0
 52 54  2  0  0  0  0
 54 56  1  0  0  0  0
 53 55  1  0  0  0  0
 53 56  2  0  0  0  0
 57 54  1  0  0  0  0
 56 66  1  0  0  0  0
 57 61  2  0  0  0  0
 61 64  1  0  0  0  0
 64 66  2  0  0  0  0
 53 60  1  0  0  0  0
 55 58  1  0  0  0  0
 57 62  1  0  0  0  0
 59 66  1  0  0  0  0
 64 65  1  0  0  0  0
 61 63  1  0  0  0  0
  7 52  1  0  0  0  0
  1 67  1  0  0  0  0
M  END
> <PM6_ENERGY>
708.764

> <UID>
CIHSFTGEZDPVLL-OZVXPLSBNA-M

> <FITNESS>
1.1443

> <GCODE>
11348

> <GraphENC>
11348 72_1_0,81_66_1,97_19_1,88_67_1,232787_22_1,232788_39_1,232116_22_1,232109_39_1, 72_0_81_0_SINGLE_Xlig:0_Xlig:1,72_2_97_0_SINGLE_scaff:0_MImidazolylidene:1,72_1_88_0_SINGLE_Xlig:0_Xlig:1,97_3_232787_0_SINGLE_LImidazolylideneSubCS:0_LImidazolylideneSubCS:1,97_4_232788_0_SINGLE_LImidazolylideneSubNL:0_SubArM:1,97_2_232116_0_SINGLE_LImidazolylideneSubCS:0_LImidazolylideneSubCS:1,97_1_232109_0_SINGLE_LImidazolylideneSubNL:0_SubArM:1, SymmetricSet [symIds=[232788, 232109]] SymmetricSet [symIds=[232787, 232116]] 

> <GraphJson>
{
  "graphId": 11348,
  "gVertices": [
    {
      "lstAPs": [
        {
          "id": 303850,
          "atomPositionNumber": 0,
          "atomPositionNumberInMol": 0,
          "apClass": {
            "rule": "Xlig",
            "subClass": 0,
            "bndTyp": "SINGLE"
          },
          "dirVec": {
            "x": -2.3339,
            "y": -0.0087,
            "z": 0.8172
          }
        },
        {
          "id": 303851,
          "atomPositionNumber": 0,
          "atomPositionNumberInMol": 0,
          "apClass": {
            "rule": "Xlig",
            "subClass": 0,
            "bndTyp": "SINGLE"
          },
          "dirVec": {
            "x": 2.336,
            "y": -5.0E-4,
            "z": 0.829
          }
        },
        {
          "id": 303852,
          "atomPositionNumber": 0,
          "atomPositionNumberInMol": 0,
          "apClass": {
            "rule": "scaff",
            "subClass": 0,
            "bndTyp": "SINGLE"
          },
          "dirVec": {
            "x": -0.0095,
            "y": 0.0046,
            "z": -1.7113
          }
        }
      ],
      "lstSymAPs": [
        {
          "symIds": [
            0,
            1
          ]
        }
      ],
      "mol": {
        "atoms": [
          {
            "elSymbol": "Pt",
            "p3d": {
              "x": -0.0098,
              "y": 0.0049,
              "z": 0.6289
            }
          },
          {
            "elSymbol": "C",
            "p3d": {
              "x": -6.0E-4,
              "y": 0.0016,
              "z": 2.5609
            }
          },
          {
            "elSymbol": "O",
            "p3d": {
              "x": 0.0025,
              "y": -0.0041,
              "z": 3.6974
            }
          },
          {
            "elSymbol": "Du",
            "p3d": {
              "x": -0.007,
              "y": 1.0013,
              "z": 0.6372
            }
          },
          {
            "elSymbol": "Du",
            "p3d": {
              "x": -0.0014,
              "y": 0.9902,
              "z": 2.5698
            }
          }
        ],
        "bonds": [
          {
            "atomIds": [
              1,
              2
            ],
            "bo": "TRIPLE"
          },
          {
            "atomIds": [
              0,
              1
            ],
            "bo": "SINGLE"
          },
          {
            "atomIds": [
              3,
              0
            ],
            "bo": "SINGLE"
          },
          {
            "atomIds": [
              4,
              1
            ],
            "bo": "SINGLE"
          }
        ]
      },
      "vertexId": 72,
      "buildingBlockId": 0,
      "buildingBlockType": "SCAFFOLD",
      "isRCV": false,
      "properties": {
        "ATTACHMENT_POINTS": "1#Xlig:0:SINGLE:-2.3339%-0.0087%0.8172,Xlig:0:SINGLE:2.3360%-0.0005%0.8290,scaff:0:SINGLE:-0.0095%0.0046%-1.7113 "
      },
      "uniquefyingPropertyKeys": [],
      "allowedMutationTypes": [
        "DELETE",
        "EXTEND",
        "CHANGEBRANCH",
        "CHANGELINK",
        "ADDLINK",
        "DELETELINK",
        "DELETECHAIN"
      ],
      "vertexType": "MolecularFragment"
    },
    {
      "lstAPs": [
        {
          "id": 303853,
          "atomPositionNumber": 0,
          "atomPositionNumberInMol": 5,
          "apClass": {
            "rule": "Xlig",
            "subClass": 1,
            "bndTyp": "SINGLE"
          },
          "dirVec": {
            "x": 0.0192,
            "y": -0.0048,
            "z": -0.5645
          }
        }
      ],
      "lstSymAPs": [],
      "mol": {
        "atoms": [
          {
            "elSymbol": "C",
            "p3d": {
              "x": -1.967,
              "y": -0.0075,
              "z": -0.4937
            }
          },
          {
            "elSymbol": "N",
            "p3d": {
              "x": -3.1263,
              "y": -0.0054,
              "z": -0.4354
            }
          },
          {
            "elSymbol": "Du",
            "p3d": {
              "x": -1.9744,
              "y": 0.9926,
              "z": -0.5036
            }
          }
        ],
        "bonds": [
          {
            "atomIds": [
              0,
              1
            ],
            "bo": "TRIPLE"
          },
          {
            "atomIds": [
              2,
              0
            ],
            "bo": "SINGLE"
          }
        ]
      },
      "vertexId": 81,
      "buildingBlockId": 65,
      "buildingBlockType": "FRAGMENT",
      "isRCV": false,
      "properties": {
        "ATTACHMENT_POINTS": "1#Xlig:1:SINGLE:0.0192%-0.0048%-0.5645 "
      },
      "uniquefyingPropertyKeys": [],
      "allowedMutationTypes": [
        "DELETE",
        "EXTEND",
        "CHANGEBRANCH",
        "CHANGELINK",
        "ADDLINK",
        "DELETELINK",
        "DELETECHAIN"
      ],
      "vertexType": "MolecularFragment"
    },
    {
      "lstAPs": [
        {
          "id": 303854,
          "atomPositionNumber": 0,
          "atomPositionNumberInMol": 8,
          "apClass": {
            "rule": "MImidazolylidene",
            "subClass": 1,
            "bndTyp": "SINGLE"
          },
          "dirVec": {
            "x": 6.9056,
            "y": 0.097,
            "z": 12.1004
          }
        },
        {
          "id": 303855,
          "atomPositionNumber": 1,
          "atomPositionNumberInMol": 9,
          "apClass": {
            "rule": "LImidazolylideneSubNL",
            "subClass": 0,
            "bndTyp": "SINGLE"
          },
          "dirVec": {
            "x": 4.1123,
            "y": 2.1609,
            "z": 11.1322
          }
        },
        {
          "id": 303856,
          "atomPositionNumber": 2,
          "atomPositionNumberInMol": 10,
          "apClass": {
            "rule": "LImidazolylideneSubCS",
            "subClass": 0,
            "bndTyp": "SINGLE"
          },
          "dirVec": {
            "x": 2.203,
            "y": 3.3086,
            "z": 13.3341
          }
        },
        {
          "id": 303857,
          "atomPositionNumber": 3,
          "atomPositionNumberInMol": 11,
          "apClass": {
            "rule": "LImidazolylideneSubCS",
            "subClass": 0,
            "bndTyp": "SINGLE"
          },
          "dirVec": {
            "x": 3.4334,
            "y": 2.3948,
            "z": 16.1586
          }
        },
        {
          "id": 303858,
          "atomPositionNumber": 4,
          "atomPositionNumberInMol": 12,
          "apClass": {
            "rule": "LImidazolylideneSubNL",
            "subClass": 0,
            "bndTyp": "SINGLE"
          },
          "dirVec": {
            "x": 5.9067,
            "y": 0.5846,
            "z": 15.5163
          }
        }
      ],
      "lstSymAPs": [
        {
          "symIds": [
            1,
            4
          ]
        },
        {
          "symIds": [
            2,
            3
          ]
        }
      ],
      "mol": {
        "atoms": [
          {
            "elSymbol": "C",
            "p3d": {
              "x": 5.2812,
              "y": 1.2018,
              "z": 13.1656
            }
          },
          {
            "elSymbol": "N",
            "p3d": {
              "x": 4.2675,
              "y": 1.9426,
              "z": 12.5989
            }
          },
          {
            "elSymbol": "C",
            "p3d": {
              "x": 3.4407,
              "y": 2.4761,
              "z": 13.582
            }
          },
          {
            "elSymbol": "C",
            "p3d": {
              "x": 3.9357,
              "y": 2.0507,
              "z": 14.777
            }
          },
          {
            "elSymbol": "N",
            "p3d": {
              "x": 5.0694,
              "y": 1.2634,
              "z": 14.5115
            }
          }
        ],
        "bonds": [
          {
            "atomIds": [
              1,
              0
            ],
            "bo": "SINGLE"
          },
          {
            "atomIds": [
              2,
              1
            ],
            "bo": "SINGLE"
          },
          {
            "atomIds": [
              3,
              2
            ],
            "bo": "DOUBLE"
          },
          {
            "atomIds": [
              3,
              4
            ],
            "bo": "SINGLE"
          },
          {
            "atomIds": [
              4,
              0
            ],
            "bo": "SINGLE"
          }
        ]
      },
      "vertexId": 97,
      "buildingBlockId": 18,
      "buildingBlockType": "FRAGMENT",
      "isRCV": false,
      "properties": {
        "ATTACHMENT_POINTS": "1#MImidazolylidene:1:SINGLE:6.9056%0.0970%12.1004 2#LImidazolylideneSubNL:0:SINGLE:4.1123%2.1609%11.1322 3#LImidazolylideneSubCS:0:SINGLE:2.2030%3.3086%13.3341 4#LImidazolylideneSubCS:0:SINGLE:3.4334%2.3948%16.1586 5#LImidazolylideneSubNL:0:SINGLE:5.9067%0.5846%15.5163 "
      },
      "uniquefyingPropertyKeys": [],
      "allowedMutationTypes": [
        "DELETE",
        "EXTEND",
        "CHANGEBRANCH",
        "CHANGELINK",
        "ADDLINK",
        "DELETELINK",
        "DELETECHAIN"
      ],
      "vertexType": "MolecularFragment"
    },
    {
      "lstAPs": [
        {
          "id": 303859,
          "atomPositionNumber": 0,
          "atomPositionNumberInMol": 69,
          "apClass": {
            "rule": "Xlig",
            "subClass": 1,
            "bndTyp": "SINGLE"
          },
          "dirVec": {
            "x": -0.0053,
            "y": -0.0027,
            "z": 0.63
          }
        }
      ],
      "lstSymAPs": [],
      "mol": {
        "atoms": [
          {
            "elSymbol": "Cl",
            "p3d": {
              "x": 2.3243,
              "y": -0.0063,
              "z": 0.8189
            }
          }
        ],
        "bonds": []
      },
      "vertexId": 88,
      "buildingBlockId": 66,
      "buildingBlockType": "FRAGMENT",
      "isRCV": false,
      "properties": {
        "ATTACHMENT_POINTS": "1#Xlig:1:SINGLE:-0.0053%-0.0027%0.6300 "
      },
      "uniquefyingPropertyKeys": [],
      "allowedMutationTypes": [
        "DELETE",
        "EXTEND",
        "CHANGEBRANCH",
        "CHANGELINK",
        "ADDLINK",
        "DELETELINK",
        "DELETECHAIN"
      ],
      "vertexType": "MolecularFragment"
    },
    {
      "lstAPs": [
        {
          "id": 303902,
          "atomPositionNumber": 0,
          "atomPositionNumberInMol": 13,
          "apClass": {
            "rule": "LImidazolylideneSubCS",
            "subClass": 1,
            "bndTyp": "SINGLE"
          },
          "dirVec": {
            "x": -0.2332,
            "y": -4.1999,
            "z": 3.5795
          }
        }
      ],
      "lstSymAPs": [],
      "mol": {
        "atoms": [
          {
            "elSymbol": "C",
            "p3d": {
              "x": 0.8656,
              "y": -5.2062,
              "z": 3.807
            }
          },
          {
            "elSymbol": "C",
            "p3d": {
              "x": 1.054,
              "y": -6.2399,
              "z": 2.8975
            }
          },
          {
            "elSymbol": "H",
            "p3d": {
              "x": 0.3991,
              "y": -6.3501,
              "z": 2.038
            }
          },
          {
            "elSymbol": "C",
            "p3d": {
              "x": 2.0673,
              "y": -7.188,
              "z": 3.1349
            }
          },
          {
            "elSymbol": "H",
            "p3d": {
              "x": 2.2054,
              "y": -7.9981,
              "z": 2.4322
            }
          },
          {
            "elSymbol": "C",
            "p3d": {
              "x": 2.901,
              "y": -7.078,
              "z": 4.2128
            }
          },
          {
            "elSymbol": "H",
            "p3d": {
              "x": 3.6958,
              "y": -7.8112,
              "z": 4.3872
            }
          },
          {
            "elSymbol": "C",
            "p3d": {
              "x": 2.7401,
              "y": -6.0405,
              "z": 5.1034
            }
          },
          {
            "elSymbol": "H",
            "p3d": {
              "x": 3.412,
              "y": -5.9498,
              "z": 5.9565
            }
          },
          {
            "elSymbol": "C",
            "p3d": {
              "x": 1.7365,
              "y": -5.0846,
              "z": 4.9051
            }
          },
          {
            "elSymbol": "H",
            "p3d": {
              "x": 1.6174,
              "y": -4.2762,
              "z": 5.6042
            }
          }
        ],
        "bonds": [
          {
            "atomIds": [
              1,
              0
            ],
            "bo": "SINGLE"
          },
          {
            "atomIds": [
              2,
              1
            ],
            "bo": "SINGLE"
          },
          {
            "atomIds": [
              3,
              1
            ],
            "bo": "DOUBLE"
          },
          {
            "atomIds": [
              4,
              3
            ],
            "bo": "SINGLE"
          },
          {
            "atomIds": [
              5,
              3
            ],
            "bo": "SINGLE"
          },
          {
            "atomIds": [
              6,
              5
            ],
            "bo": "SINGLE"
          },
          {
            "atomIds": [
              7,
              5
            ],
            "bo": "DOUBLE"
          },
          {
            "atomIds": [
              8,
              7
            ],
            "bo": "SINGLE"
          },
          {
            "atomIds": [
              9,
              0
            ],
            "bo": "DOUBLE"
          },
          {
            "atomIds": [
              10,
              9
            ],
            "bo": "SINGLE"
          },
          {
            "atomIds": [
              7,
              9
            ],
            "bo": "SINGLE"
          }
        ]
      },
      "vertexId": 232787,
      "buildingBlockId": 21,
      "buildingBlockType": "FRAGMENT",
      "isRCV": false,
      "properties": {
        "ATTACHMENT_POINTS": "1#LImidazolylideneSubCS:1:SINGLE:-0.2332%-4.1999%3.5795 "
      },
      "uniquefyingPropertyKeys": [],
      "allowedMutationTypes": [
        "DELETE",
        "EXTEND",
        "CHANGEBRANCH",
        "CHANGELINK",
        "ADDLINK",
        "DELETELINK",
        "DELETECHAIN"
      ],
      "vertexType": "MolecularFragment"
    },
    {
      "lstAPs": [
        {
          "id": 303903,
          "atomPositionNumber": 2,
          "atomPositionNumberInMol": 26,
          "apClass": {
            "rule": "SubArM",
            "subClass": 1,
            "bndTyp": "SINGLE"
          },
          "dirVec": {
            "x": 0.2839,
            "y": 0.3907,
            "z": -0.6271
          }
        }
      ],
      "lstSymAPs": [],
      "mol": {
        "atoms": [
          {
            "elSymbol": "H",
            "p3d": {
              "x": 1.8079,
              "y": 2.6521,
              "z": -0.6457
            }
          },
          {
            "elSymbol": "C",
            "p3d": {
              "x": 2.3292,
              "y": 1.8028,
              "z": -1.1346
            }
          },
          {
            "elSymbol": "C",
            "p3d": {
              "x": 1.6928,
              "y": 0.5701,
              "z": -1.2214
            }
          },
          {
            "elSymbol": "C",
            "p3d": {
              "x": 4.26,
              "y": 0.9161,
              "z": -2.2564
            }
          },
          {
            "elSymbol": "C",
            "p3d": {
              "x": 2.3547,
              "y": -0.5116,
              "z": -1.8205
            }
          },
          {
            "elSymbol": "C",
            "p3d": {
              "x": 3.6118,
              "y": 1.9867,
              "z": -1.654
            }
          },
          {
            "elSymbol": "C",
            "p3d": {
              "x": 3.6519,
              "y": -0.333,
              "z": -2.339
            }
          },
          {
            "elSymbol": "C",
            "p3d": {
              "x": 1.7318,
              "y": -1.7781,
              "z": -1.8989
            }
          },
          {
            "elSymbol": "H",
            "p3d": {
              "x": 4.0936,
              "y": 2.9609,
              "z": -1.5808
            }
          },
          {
            "elSymbol": "H",
            "p3d": {
              "x": 5.3077,
              "y": -1.3005,
              "z": -3.3639
            }
          },
          {
            "elSymbol": "H",
            "p3d": {
              "x": 5.2705,
              "y": 1.0583,
              "z": -2.6578
            }
          },
          {
            "elSymbol": "C",
            "p3d": {
              "x": 2.3998,
              "y": -2.8526,
              "z": -2.5007
            }
          },
          {
            "elSymbol": "H",
            "p3d": {
              "x": 0.724,
              "y": -1.9306,
              "z": -1.4908
            }
          },
          {
            "elSymbol": "H",
            "p3d": {
              "x": 1.9155,
              "y": -3.8304,
              "z": -2.576
            }
          },
          {
            "elSymbol": "C",
            "p3d": {
              "x": 3.684,
              "y": -2.6697,
              "z": -3.0355
            }
          },
          {
            "elSymbol": "H",
            "p3d": {
              "x": 4.2028,
              "y": -3.5195,
              "z": -3.4955
            }
          },
          {
            "elSymbol": "C",
            "p3d": {
              "x": 4.3092,
              "y": -1.4197,
              "z": -2.9387
            }
          }
        ],
        "bonds": [
          {
            "atomIds": [
              0,
              1
            ],
            "bo": "SINGLE"
          },
          {
            "atomIds": [
              1,
              2
            ],
            "bo": "SINGLE"
          },
          {
            "atomIds": [
              1,
              5
            ],
            "bo": "DOUBLE"
          },
          {
            "atomIds": [
              2,
              4
            ],
            "bo": "DOUBLE"
          },
          {
            "atomIds": [
              4,
              6
            ],
            "bo": "SINGLE"
          },
          {
            "atomIds": [
              3,
              5
            ],
            "bo": "SINGLE"
          },
          {
            "atomIds": [
              3,
              6
            ],
            "bo": "DOUBLE"
          },
          {
            "atomIds": [
              7,
              4
            ],
            "bo": "SINGLE"
          },
          {
            "atomIds": [
              6,
              16
            ],
            "bo": "SINGLE"
          },
          {
            "atomIds": [
              7,
              11
            ],
            "bo": "DOUBLE"
          },
          {
            "atomIds": [
              11,
              14
            ],
            "bo": "SINGLE"
          },
          {
            "atomIds": [
              14,
              16
            ],
            "bo": "DOUBLE"
          },
          {
            "atomIds": [
              3,
              10
            ],
            "bo": "SINGLE"
          },
          {
            "atomIds": [
              5,
              8
            ],
            "bo": "SINGLE"
          },
          {
            "atomIds": [
              7,
              12
            ],
            "bo": "SINGLE"
          },
          {
            "atomIds": [
              9,
              16
            ],
            "bo": "SINGLE"
          },
          {
            "atomIds": [
              14,
              15
            ],
            "bo": "SINGLE"
          },
          {
            "atomIds": [
              11,
              13
            ],
            "bo": "SINGLE"
          }
        ]
      },
      "vertexId": 232788,
      "buildingBlockId": 38,
      "buildingBlockType": "FRAGMENT",
      "isRCV": false,
      "properties": {
        "ATTACHMENT_POINTS": "3#SubArM:1:SINGLE:0.2839%0.3907%-0.6271 "
      },
      "uniquefyingPropertyKeys": [],
      "allowedMutationTypes": [
        "DELETE",
        "EXTEND",
        "CHANGEBRANCH",
        "CHANGELINK",
        "ADDLINK",
        "DELETELINK",
        "DELETECHAIN"
      ],
      "vertexType": "MolecularFragment"
    },
    {
      "lstAPs": [
        {
          "id": 303904,
          "atomPositionNumber": 0,
          "atomPositionNumberInMol": 41,
          "apClass": {
            "rule": "LImidazolylideneSubCS",
            "subClass": 1,
            "bndTyp": "SINGLE"
          },
          "dirVec": {
            "x": -0.2332,
            "y": -4.1999,
            "z": 3.5795
          }
        }
      ],
      "lstSymAPs": [],
      "mol": {
        "atoms": [
          {
            "elSymbol": "C",
            "p3d": {
              "x": 0.8656,
              "y": -5.2062,
              "z": 3.807
            }
          },
          {
            "elSymbol": "C",
            "p3d": {
              "x": 1.054,
              "y": -6.2399,
              "z": 2.8975
            }
          },
          {
            "elSymbol": "H",
            "p3d": {
              "x": 0.3991,
              "y": -6.3501,
              "z": 2.038
            }
          },
          {
            "elSymbol": "C",
            "p3d": {
              "x": 2.0673,
              "y": -7.188,
              "z": 3.1349
            }
          },
          {
            "elSymbol": "H",
            "p3d": {
              "x": 2.2054,
              "y": -7.9981,
              "z": 2.4322
            }
          },
          {
            "elSymbol": "C",
            "p3d": {
              "x": 2.901,
              "y": -7.078,
              "z": 4.2128
            }
          },
          {
            "elSymbol": "H",
            "p3d": {
              "x": 3.6958,
              "y": -7.8112,
              "z": 4.3872
            }
          },
          {
            "elSymbol": "C",
            "p3d": {
              "x": 2.7401,
              "y": -6.0405,
              "z": 5.1034
            }
          },
          {
            "elSymbol": "H",
            "p3d": {
              "x": 3.412,
              "y": -5.9498,
              "z": 5.9565
            }
          },
          {
            "elSymbol": "C",
            "p3d": {
              "x": 1.7365,
              "y": -5.0846,
              "z": 4.9051
            }
          },
          {
            "elSymbol": "H",
            "p3d": {
              "x": 1.6174,
              "y": -4.2762,
              "z": 5.6042
            }
          }
        ],
        "bonds": [
          {
            "atomIds": [
              1,
              0
            ],
            "bo": "SINGLE"
          },
          {
            "atomIds": [
              2,
              1
            ],
            "bo": "SINGLE"
          },
          {
            "atomIds": [
              3,
              1
            ],
            "bo": "DOUBLE"
          },
          {
            "atomIds": [
              4,
              3
            ],
            "bo": "SINGLE"
          },
          {
            "atomIds": [
              5,
              3
            ],
            "bo": "SINGLE"
          },
          {
            "atomIds": [
              6,
              5
            ],
            "bo": "SINGLE"
          },
          {
            "atomIds": [
              7,
              5
            ],
            "bo": "DOUBLE"
          },
          {
            "atomIds": [
              8,
              7
            ],
            "bo": "SINGLE"
          },
          {
            "atomIds": [
              9,
              0
            ],
            "bo": "DOUBLE"
          },
          {
            "atomIds": [
              10,
              9
            ],
            "bo": "SINGLE"
          },
          {
            "atomIds": [
              7,
              9
            ],
            "bo": "SINGLE"
          }
        ]
      },
      "vertexId": 232116,
      "buildingBlockId": 21,
      "buildingBlockType": "FRAGMENT",
      "isRCV": false,
      "properties": {
        "ATTACHMENT_POINTS": "1#LImidazolylideneSubCS:1:SINGLE:-0.2332%-4.1999%3.5795 "
      },
      "uniquefyingPropertyKeys": [],
      "allowedMutationTypes": [
        "DELETE",
        "EXTEND",
        "CHANGEBRANCH",
        "CHANGELINK",
        "ADDLINK",
        "DELETELINK",
        "DELETECHAIN"
      ],
      "vertexType": "MolecularFragment"
    },
    {
      "lstAPs": [
        {
          "id": 303905,
          "atomPositionNumber": 2,
          "atomPositionNumberInMol": 54,
          "apClass": {
            "rule": "SubArM",
            "subClass": 1,
            "bndTyp": "SINGLE"
          },
          "dirVec": {
            "x": 0.2839,
            "y": 0.3907,
            "z": -0.6271
          }
        }
      ],
      "lstSymAPs": [],
      "mol": {
        "atoms": [
          {
            "elSymbol": "H",
            "p3d": {
              "x": 1.8079,
              "y": 2.6521,
              "z": -0.6457
            }
          },
          {
            "elSymbol": "C",
            "p3d": {
              "x": 2.3292,
              "y": 1.8028,
              "z": -1.1346
            }
          },
          {
            "elSymbol": "C",
            "p3d": {
              "x": 1.6928,
              "y": 0.5701,
              "z": -1.2214
            }
          },
          {
            "elSymbol": "C",
            "p3d": {
              "x": 4.26,
              "y": 0.9161,
              "z": -2.2564
            }
          },
          {
            "elSymbol": "C",
            "p3d": {
              "x": 2.3547,
              "y": -0.5116,
              "z": -1.8205
            }
          },
          {
            "elSymbol": "C",
            "p3d": {
              "x": 3.6118,
              "y": 1.9867,
              "z": -1.654
            }
          },
          {
            "elSymbol": "C",
            "p3d": {
              "x": 3.6519,
              "y": -0.333,
              "z": -2.339
            }
          },
          {
            "elSymbol": "C",
            "p3d": {
              "x": 1.7318,
              "y": -1.7781,
              "z": -1.8989
            }
          },
          {
            "elSymbol": "H",
            "p3d": {
              "x": 4.0936,
              "y": 2.9609,
              "z": -1.5808
            }
          },
          {
            "elSymbol": "H",
            "p3d": {
              "x": 5.3077,
              "y": -1.3005,
              "z": -3.3639
            }
          },
          {
            "elSymbol": "H",
            "p3d": {
              "x": 5.2705,
              "y": 1.0583,
              "z": -2.6578
            }
          },
          {
            "elSymbol": "C",
            "p3d": {
              "x": 2.3998,
              "y": -2.8526,
              "z": -2.5007
            }
          },
          {
            "elSymbol": "H",
            "p3d": {
              "x": 0.724,
              "y": -1.9306,
              "z": -1.4908
            }
          },
          {
            "elSymbol": "H",
            "p3d": {
              "x": 1.9155,
              "y": -3.8304,
              "z": -2.576
            }
          },
          {
            "elSymbol": "C",
            "p3d": {
              "x": 3.684,
              "y": -2.6697,
              "z": -3.0355
            }
          },
          {
            "elSymbol": "H",
            "p3d": {
              "x": 4.2028,
              "y": -3.5195,
              "z": -3.4955
            }
          },
          {
            "elSymbol": "C",
            "p3d": {
              "x": 4.3092,
              "y": -1.4197,
              "z": -2.9387
            }
          }
        ],
        "bonds": [
          {
            "atomIds": [
              0,
              1
            ],
            "bo": "SINGLE"
          },
          {
            "atomIds": [
              1,
              2
            ],
            "bo": "SINGLE"
          },
          {
            "atomIds": [
              1,
              5
            ],
            "bo": "DOUBLE"
          },
          {
            "atomIds": [
              2,
              4
            ],
            "bo": "DOUBLE"
          },
          {
            "atomIds": [
              4,
              6
            ],
            "bo": "SINGLE"
          },
          {
            "atomIds": [
              3,
              5
            ],
            "bo": "SINGLE"
          },
          {
            "atomIds": [
              3,
              6
            ],
            "bo": "DOUBLE"
          },
          {
            "atomIds": [
              7,
              4
            ],
            "bo": "SINGLE"
          },
          {
            "atomIds": [
              6,
              16
            ],
            "bo": "SINGLE"
          },
          {
            "atomIds": [
              7,
              11
            ],
            "bo": "DOUBLE"
          },
          {
            "atomIds": [
              11,
              14
            ],
            "bo": "SINGLE"
          },
          {
            "atomIds": [
              14,
              16
            ],
            "bo": "DOUBLE"
          },
          {
            "atomIds": [
              3,
              10
            ],
            "bo": "SINGLE"
          },
          {
            "atomIds": [
              5,
              8
            ],
            "bo": "SINGLE"
          },
          {
            "atomIds": [
              7,
              12
            ],
            "bo": "SINGLE"
          },
          {
            "atomIds": [
              9,
              16
            ],
            "bo": "SINGLE"
          },
          {
            "atomIds": [
              14,
              15
            ],
            "bo": "SINGLE"
          },
          {
            "atomIds": [
              11,
              13
            ],
            "bo": "SINGLE"
          }
        ]
      },
      "vertexId": 232109,
      "buildingBlockId": 38,
      "buildingBlockType": "FRAGMENT",
      "isRCV": false,
      "properties": {
        "ATTACHMENT_POINTS": "3#SubArM:1:SINGLE:0.2839%0.3907%-0.6271 "
      },
      "uniquefyingPropertyKeys": [],
      "allowedMutationTypes": [
        "DELETE",
        "EXTEND",
        "CHANGEBRANCH",
        "CHANGELINK",
        "ADDLINK",
        "DELETELINK",
        "DELETECHAIN"
      ],
      "vertexType": "MolecularFragment"
    }
  ],
  "gEdges": [
    {
      "srcAPID": 303850,
      "trgAPID": 303853,
      "bondType": "SINGLE"
    },
    {
      "srcAPID": 303852,
      "trgAPID": 303854,
      "bondType": "SINGLE"
    },
    {
      "srcAPID": 303851,
      "trgAPID": 303859,
      "bondType": "SINGLE"
    },
    {
      "srcAPID": 303857,
      "trgAPID": 303902,
      "bondType": "SINGLE"
    },
    {
      "srcAPID": 303858,
      "trgAPID": 303903,
      "bondType": "SINGLE"
    },
    {
      "srcAPID": 303856,
      "trgAPID": 303904,
      "bondType": "SINGLE"
    },
    {
      "srcAPID": 303855,
      "trgAPID": 303905,
      "bondType": "SINGLE"
    }
  ],
  "gRings": [],
  "symVertices": [
    {
      "symIds": [
        232788,
        232109
      ]
    },
    {
      "symIds": [
        232787,
        232116
      ]
    }
  ]
}

> <SMILES>
[Pt](C#O)(C#N)([C]1N(C(=C(N1C=2C([H])=C(C(=C3C2C(=C(C(=C3[H])[H])[H])[H])[H])[H])C=4C([H])=C([H])C([H])=C([H])C4[H])C=5C([H])=C([H])C([H])=C([H])C5[H])C=6C([H])=C(C(=C7C6C(=C(C(=C7[H])[H])[H])[H])[H])[H])Cl

$$$$
