M00009217
  CDK     04222212003D

 43 44  0  0  0  0  0  0  0  0999 V2000
   -2.7733    0.2490   -0.5120 Pt  0  0  0  0  0  0  0  0  0  0  0  0
   -4.7067    0.3217   -0.2686 C   0  0  0  0  0  0  0  0  0  0  0  0
   -5.8393    0.3558   -0.1272 O   0  0  0  0  0  0  0  0  0  0  0  0
   -2.7541    2.2111   -0.8753 C   0  0  0  0  0  0  0  0  0  0  0  0
   -2.7333    3.3480   -1.0806 N   0  0  0  0  0  0  0  0  0  0  0  0
   -0.5035    0.1190   -0.7488 P   0  0  0  0  0  0  0  0  0  0  0  0
    0.2595    1.6174   -1.5933 C   0  0  0  0  0  0  0  0  0  0  0  0
   -0.1394    1.7134   -2.6267 H   0  0  0  0  0  0  0  0  0  0  0  0
   -0.0865    2.5426   -1.0758 H   0  0  0  0  0  0  0  0  0  0  0  0
    1.4545   -1.4309   -2.1341 C   0  0  0  0  0  0  0  0  0  0  0  0
    2.1542   -1.2588   -1.2919 H   0  0  0  0  0  0  0  0  0  0  0  0
    1.7004   -2.4574   -2.4886 H   0  0  0  0  0  0  0  0  0  0  0  0
    1.7333   -0.4408   -3.2747 C   0  0  0  0  0  0  0  0  0  0  0  0
    2.3976   -0.9283   -4.0189 H   0  0  0  0  0  0  0  0  0  0  0  0
    0.8020   -0.2255   -3.8352 H   0  0  0  0  0  0  0  0  0  0  0  0
    1.7835    1.5577   -1.6030 C   0  0  0  0  0  0  0  0  0  0  0  0
    2.1916    1.0928   -0.6816 H   0  0  0  0  0  0  0  0  0  0  0  0
    2.1697    2.6026   -1.5708 H   0  0  0  0  0  0  0  0  0  0  0  0
    2.3899    0.8733   -2.8368 C   0  0  0  0  0  0  0  0  0  0  0  0
    2.3583    1.5788   -3.6934 H   0  0  0  0  0  0  0  0  0  0  0  0
    3.4677    0.6961   -2.6416 H   0  0  0  0  0  0  0  0  0  0  0  0
   -0.0007   -1.4380   -1.6756 C   0  0  0  0  0  0  0  0  0  0  0  0
   -0.2002   -2.3279   -1.0334 H   0  0  0  0  0  0  0  0  0  0  0  0
   -0.6795   -1.5741   -2.5482 H   0  0  0  0  0  0  0  0  0  0  0  0
    0.1812    0.0979    1.0246 C   0  0  0  0  0  0  0  0  0  0  0  0
   -0.3756    0.8555    3.3604 C   0  0  0  0  0  0  0  0  0  0  0  0
    0.9554   -1.2687    2.9871 C   0  0  0  0  0  0  0  0  0  0  0  0
   -0.0529   -0.5475    3.8915 C   0  0  0  0  0  0  0  0  0  0  0  0
    0.4616   -1.3220    1.5301 C   0  0  0  0  0  0  0  0  0  0  0  0
   -0.8678    0.8014    1.9036 C   0  0  0  0  0  0  0  0  0  0  0  0
    0.5199    1.5018    3.4330 H   0  0  0  0  0  0  0  0  0  0  0  0
    1.9368   -0.7604    3.0368 H   0  0  0  0  0  0  0  0  0  0  0  0
   -0.9839   -1.1443    3.9627 H   0  0  0  0  0  0  0  0  0  0  0  0
   -0.4523   -1.9556    1.4919 H   0  0  0  0  0  0  0  0  0  0  0  0
   -1.8458    0.2600    1.8784 H   0  0  0  0  0  0  0  0  0  0  0  0
    1.1365    0.6823    1.0486 H   0  0  0  0  0  0  0  0  0  0  0  0
   -1.1464    1.3316    3.9963 H   0  0  0  0  0  0  0  0  0  0  0  0
    1.1237   -2.2978    3.3584 H   0  0  0  0  0  0  0  0  0  0  0  0
    0.3444   -0.4796    4.9216 H   0  0  0  0  0  0  0  0  0  0  0  0
    1.2244   -1.8329    0.9112 H   0  0  0  0  0  0  0  0  0  0  0  0
   -1.0732    1.8366    1.5556 H   0  0  0  0  0  0  0  0  0  0  0  0
   -2.7759   -1.7107   -0.1375 C   0  0  0  0  0  0  0  0  0  0  0  0
   -2.7556   -2.8452    0.0818 N   0  0  0  0  0  0  0  0  0  0  0  0
  2  3  3  0  0  0  0
  1  2  1  0  0  0  0
  4  5  3  0  0  0  0
  1  4  1  0  0  0  0
  7  6  1  0  0  0  0
  8  7  1  0  0  0  0
  9  7  1  0  0  0  0
 10 11  1  0  0  0  0
 10 22  1  0  0  0  0
 12 10  1  0  0  0  0
 13 10  1  0  0  0  0
 14 13  1  0  0  0  0
 15 13  1  0  0  0  0
 16  7  1  0  0  0  0
 16 19  1  0  0  0  0
 17 16  1  0  0  0  0
 18 16  1  0  0  0  0
 19 13  1  0  0  0  0
 20 19  1  0  0  0  0
 21 19  1  0  0  0  0
 22  6  1  0  0  0  0
 23 22  1  0  0  0  0
 24 22  1  0  0  0  0
  1  6  1  0  0  0  0
 25 36  1  0  0  0  0
 25 29  1  0  0  0  0
 25 30  1  0  0  0  0
 26 31  1  0  0  0  0
 26 37  1  0  0  0  0
 26 28  1  0  0  0  0
 26 30  1  0  0  0  0
 27 32  1  0  0  0  0
 27 38  1  0  0  0  0
 27 29  1  0  0  0  0
 27 28  1  0  0  0  0
 28 33  1  0  0  0  0
 28 39  1  0  0  0  0
 29 34  1  0  0  0  0
 29 40  1  0  0  0  0
 30 35  1  0  0  0  0
 30 41  1  0  0  0  0
  6 25  1  0  0  0  0
 42 43  3  0  0  0  0
  1 42  1  0  0  0  0
M  END
> <PM6_ENERGY>
-78.542

> <UID>
QCEOCVHNOFLHGO-BIYNOFQYNA-N

> <FITNESS>
1.1419

> <GCODE>
10192

> <GraphENC>
10192 72_1_0,81_66_1,103_41_1,87_66_1,207571_35_1, 72_0_81_0_SINGLE_Xlig:0_Xlig:1,72_2_103_1_SINGLE_scaff:0_MPhosphine:1,72_1_87_0_SINGLE_Xlig:0_Xlig:1,103_0_207571_0_SINGLE_LPhosphineSubM:0_SubRM:1, 

> <GraphJson>
{
  "graphId": 10192,
  "gVertices": [
    {
      "lstAPs": [
        {
          "id": 271213,
          "atomPositionNumber": 0,
          "atomPositionNumberInMol": 0,
          "apClass": {
            "rule": "Xlig",
            "subClass": 0,
            "bndTyp": "SINGLE"
          },
          "dirVec": {
            "x": -2.3339,
            "y": -0.0087,
            "z": 0.8172
          }
        },
        {
          "id": 271214,
          "atomPositionNumber": 0,
          "atomPositionNumberInMol": 0,
          "apClass": {
            "rule": "Xlig",
            "subClass": 0,
            "bndTyp": "SINGLE"
          },
          "dirVec": {
            "x": 2.336,
            "y": -5.0E-4,
            "z": 0.829
          }
        },
        {
          "id": 271215,
          "atomPositionNumber": 0,
          "atomPositionNumberInMol": 0,
          "apClass": {
            "rule": "scaff",
            "subClass": 0,
            "bndTyp": "SINGLE"
          },
          "dirVec": {
            "x": -0.0095,
            "y": 0.0046,
            "z": -1.7113
          }
        }
      ],
      "lstSymAPs": [
        {
          "symIds": [
            0,
            1
          ]
        }
      ],
      "mol": {
        "atoms": [
          {
            "elSymbol": "Pt",
            "p3d": {
              "x": -0.0098,
              "y": 0.0049,
              "z": 0.6289
            }
          },
          {
            "elSymbol": "C",
            "p3d": {
              "x": -6.0E-4,
              "y": 0.0016,
              "z": 2.5609
            }
          },
          {
            "elSymbol": "O",
            "p3d": {
              "x": 0.0025,
              "y": -0.0041,
              "z": 3.6974
            }
          },
          {
            "elSymbol": "Du",
            "p3d": {
              "x": -0.007,
              "y": 1.0013,
              "z": 0.6372
            }
          },
          {
            "elSymbol": "Du",
            "p3d": {
              "x": -0.0014,
              "y": 0.9902,
              "z": 2.5698
            }
          }
        ],
        "bonds": [
          {
            "atomIds": [
              1,
              2
            ],
            "bo": "TRIPLE"
          },
          {
            "atomIds": [
              0,
              1
            ],
            "bo": "SINGLE"
          },
          {
            "atomIds": [
              3,
              0
            ],
            "bo": "SINGLE"
          },
          {
            "atomIds": [
              4,
              1
            ],
            "bo": "SINGLE"
          }
        ]
      },
      "vertexId": 72,
      "buildingBlockId": 0,
      "buildingBlockType": "SCAFFOLD",
      "isRCV": false,
      "properties": {
        "ATTACHMENT_POINTS": "1#Xlig:0:SINGLE:-2.3339%-0.0087%0.8172,Xlig:0:SINGLE:2.3360%-0.0005%0.8290,scaff:0:SINGLE:-0.0095%0.0046%-1.7113 "
      },
      "uniquefyingPropertyKeys": [],
      "allowedMutationTypes": [
        "DELETE",
        "EXTEND",
        "CHANGEBRANCH",
        "CHANGELINK",
        "ADDLINK",
        "DELETELINK",
        "DELETECHAIN"
      ],
      "vertexType": "MolecularFragment"
    },
    {
      "lstAPs": [
        {
          "id": 271216,
          "atomPositionNumber": 0,
          "atomPositionNumberInMol": 5,
          "apClass": {
            "rule": "Xlig",
            "subClass": 1,
            "bndTyp": "SINGLE"
          },
          "dirVec": {
            "x": 0.0192,
            "y": -0.0048,
            "z": -0.5645
          }
        }
      ],
      "lstSymAPs": [],
      "mol": {
        "atoms": [
          {
            "elSymbol": "C",
            "p3d": {
              "x": -1.967,
              "y": -0.0075,
              "z": -0.4937
            }
          },
          {
            "elSymbol": "N",
            "p3d": {
              "x": -3.1263,
              "y": -0.0054,
              "z": -0.4354
            }
          },
          {
            "elSymbol": "Du",
            "p3d": {
              "x": -1.9744,
              "y": 0.9926,
              "z": -0.5036
            }
          }
        ],
        "bonds": [
          {
            "atomIds": [
              0,
              1
            ],
            "bo": "TRIPLE"
          },
          {
            "atomIds": [
              2,
              0
            ],
            "bo": "SINGLE"
          }
        ]
      },
      "vertexId": 81,
      "buildingBlockId": 65,
      "buildingBlockType": "FRAGMENT",
      "isRCV": false,
      "properties": {
        "ATTACHMENT_POINTS": "1#Xlig:1:SINGLE:0.0192%-0.0048%-0.5645 "
      },
      "uniquefyingPropertyKeys": [],
      "allowedMutationTypes": [
        "DELETE",
        "EXTEND",
        "CHANGEBRANCH",
        "CHANGELINK",
        "ADDLINK",
        "DELETELINK",
        "DELETECHAIN"
      ],
      "vertexType": "MolecularFragment"
    },
    {
      "lstAPs": [
        {
          "id": 271217,
          "atomPositionNumber": 0,
          "atomPositionNumberInMol": 8,
          "apClass": {
            "rule": "LPhosphineSubM",
            "subClass": 0,
            "bndTyp": "SINGLE"
          },
          "dirVec": {
            "x": 10.5741,
            "y": 2.388,
            "z": 3.5052
          }
        },
        {
          "id": 271218,
          "atomPositionNumber": 0,
          "atomPositionNumberInMol": 8,
          "apClass": {
            "rule": "MPhosphine",
            "subClass": 1,
            "bndTyp": "SINGLE"
          },
          "dirVec": {
            "x": 9.1744,
            "y": 5.4814,
            "z": 2.7926
          }
        }
      ],
      "lstSymAPs": [],
      "mol": {
        "atoms": [
          {
            "elSymbol": "P",
            "p3d": {
              "x": 10.8769,
              "y": 4.0494,
              "z": 2.7954
            }
          },
          {
            "elSymbol": "C",
            "p3d": {
              "x": 12.1798,
              "y": 4.6169,
              "z": 3.946
            }
          },
          {
            "elSymbol": "H",
            "p3d": {
              "x": 12.4917,
              "y": 5.6265,
              "z": 3.6448
            }
          },
          {
            "elSymbol": "H",
            "p3d": {
              "x": 11.7572,
              "y": 4.6829,
              "z": 4.9359
            }
          },
          {
            "elSymbol": "C",
            "p3d": {
              "x": 13.105,
              "y": 3.3948,
              "z": 1.0043
            }
          },
          {
            "elSymbol": "H",
            "p3d": {
              "x": 13.2476,
              "y": 2.4369,
              "z": 1.512
            }
          },
          {
            "elSymbol": "H",
            "p3d": {
              "x": 13.3426,
              "y": 3.2455,
              "z": -0.0523
            }
          },
          {
            "elSymbol": "C",
            "p3d": {
              "x": 14.0865,
              "y": 4.4359,
              "z": 1.5921
            }
          },
          {
            "elSymbol": "H",
            "p3d": {
              "x": 14.9506,
              "y": 4.4888,
              "z": 0.9474
            }
          },
          {
            "elSymbol": "H",
            "p3d": {
              "x": 13.5947,
              "y": 5.412,
              "z": 1.5613
            }
          },
          {
            "elSymbol": "C",
            "p3d": {
              "x": 13.4292,
              "y": 3.7407,
              "z": 4.0211
            }
          },
          {
            "elSymbol": "H",
            "p3d": {
              "x": 13.1512,
              "y": 2.7042,
              "z": 3.8217
            }
          },
          {
            "elSymbol": "H",
            "p3d": {
              "x": 13.8508,
              "y": 3.7903,
              "z": 5.0209
            }
          },
          {
            "elSymbol": "C",
            "p3d": {
              "x": 14.5313,
              "y": 4.1509,
              "z": 3.0247
            }
          },
          {
            "elSymbol": "H",
            "p3d": {
              "x": 15.0393,
              "y": 5.0334,
              "z": 3.3968
            }
          },
          {
            "elSymbol": "H",
            "p3d": {
              "x": 15.284,
              "y": 3.3564,
              "z": 2.9969
            }
          },
          {
            "elSymbol": "C",
            "p3d": {
              "x": 11.628,
              "y": 3.8158,
              "z": 1.119
            }
          },
          {
            "elSymbol": "H",
            "p3d": {
              "x": 11.0357,
              "y": 3.0492,
              "z": 0.6032
            }
          },
          {
            "elSymbol": "H",
            "p3d": {
              "x": 11.5015,
              "y": 4.7365,
              "z": 0.5787
            }
          }
        ],
        "bonds": [
          {
            "atomIds": [
              1,
              0
            ],
            "bo": "SINGLE"
          },
          {
            "atomIds": [
              2,
              1
            ],
            "bo": "SINGLE"
          },
          {
            "atomIds": [
              3,
              1
            ],
            "bo": "SINGLE"
          },
          {
            "atomIds": [
              4,
              5
            ],
            "bo": "SINGLE"
          },
          {
            "atomIds": [
              4,
              16
            ],
            "bo": "SINGLE"
          },
          {
            "atomIds": [
              6,
              4
            ],
            "bo": "SINGLE"
          },
          {
            "atomIds": [
              7,
              4
            ],
            "bo": "SINGLE"
          },
          {
            "atomIds": [
              8,
              7
            ],
            "bo": "SINGLE"
          },
          {
            "atomIds": [
              9,
              7
            ],
            "bo": "SINGLE"
          },
          {
            "atomIds": [
              10,
              1
            ],
            "bo": "SINGLE"
          },
          {
            "atomIds": [
              10,
              13
            ],
            "bo": "SINGLE"
          },
          {
            "atomIds": [
              11,
              10
            ],
            "bo": "SINGLE"
          },
          {
            "atomIds": [
              12,
              10
            ],
            "bo": "SINGLE"
          },
          {
            "atomIds": [
              13,
              7
            ],
            "bo": "SINGLE"
          },
          {
            "atomIds": [
              14,
              13
            ],
            "bo": "SINGLE"
          },
          {
            "atomIds": [
              15,
              13
            ],
            "bo": "SINGLE"
          },
          {
            "atomIds": [
              16,
              0
            ],
            "bo": "SINGLE"
          },
          {
            "atomIds": [
              17,
              16
            ],
            "bo": "SINGLE"
          },
          {
            "atomIds": [
              18,
              16
            ],
            "bo": "SINGLE"
          }
        ]
      },
      "vertexId": 103,
      "buildingBlockId": 40,
      "buildingBlockType": "FRAGMENT",
      "isRCV": false,
      "properties": {
        "ATTACHMENT_POINTS": "1#LPhosphineSubM:0:SINGLE:10.5741%2.3880%3.5052,MPhosphine:1:SINGLE:9.1744%5.4814%2.7926 "
      },
      "uniquefyingPropertyKeys": [],
      "allowedMutationTypes": [
        "DELETE",
        "EXTEND",
        "CHANGEBRANCH",
        "CHANGELINK",
        "ADDLINK",
        "DELETELINK",
        "DELETECHAIN"
      ],
      "vertexType": "MolecularFragment"
    },
    {
      "lstAPs": [
        {
          "id": 271219,
          "atomPositionNumber": 0,
          "atomPositionNumberInMol": 44,
          "apClass": {
            "rule": "Xlig",
            "subClass": 1,
            "bndTyp": "SINGLE"
          },
          "dirVec": {
            "x": 0.0192,
            "y": -0.0048,
            "z": -0.5645
          }
        }
      ],
      "lstSymAPs": [],
      "mol": {
        "atoms": [
          {
            "elSymbol": "C",
            "p3d": {
              "x": -1.967,
              "y": -0.0075,
              "z": -0.4937
            }
          },
          {
            "elSymbol": "N",
            "p3d": {
              "x": -3.1263,
              "y": -0.0054,
              "z": -0.4354
            }
          },
          {
            "elSymbol": "Du",
            "p3d": {
              "x": -1.9744,
              "y": 0.9926,
              "z": -0.5036
            }
          }
        ],
        "bonds": [
          {
            "atomIds": [
              0,
              1
            ],
            "bo": "TRIPLE"
          },
          {
            "atomIds": [
              2,
              0
            ],
            "bo": "SINGLE"
          }
        ]
      },
      "vertexId": 87,
      "buildingBlockId": 65,
      "buildingBlockType": "FRAGMENT",
      "isRCV": false,
      "properties": {
        "ATTACHMENT_POINTS": "1#Xlig:1:SINGLE:0.0192%-0.0048%-0.5645 "
      },
      "uniquefyingPropertyKeys": [],
      "allowedMutationTypes": [
        "DELETE",
        "EXTEND",
        "CHANGEBRANCH",
        "CHANGELINK",
        "ADDLINK",
        "DELETELINK",
        "DELETECHAIN"
      ],
      "vertexType": "MolecularFragment"
    },
    {
      "lstAPs": [
        {
          "id": 271244,
          "atomPositionNumber": 0,
          "atomPositionNumberInMol": 27,
          "apClass": {
            "rule": "SubRM",
            "subClass": 1,
            "bndTyp": "SINGLE"
          },
          "dirVec": {
            "x": 0.2917,
            "y": 0.3929,
            "z": -0.6365
          }
        }
      ],
      "lstSymAPs": [],
      "mol": {
        "atoms": [
          {
            "elSymbol": "C",
            "p3d": {
              "x": 1.7002,
              "y": 0.56,
              "z": -1.2045
            }
          },
          {
            "elSymbol": "C",
            "p3d": {
              "x": 3.564,
              "y": -0.7339,
              "z": -2.2652
            }
          },
          {
            "elSymbol": "C",
            "p3d": {
              "x": 2.9237,
              "y": 1.5034,
              "z": -3.1926
            }
          },
          {
            "elSymbol": "C",
            "p3d": {
              "x": 3.4145,
              "y": 0.0994,
              "z": -3.5498
            }
          },
          {
            "elSymbol": "C",
            "p3d": {
              "x": 1.5576,
              "y": 1.3879,
              "z": -2.5024
            }
          },
          {
            "elSymbol": "C",
            "p3d": {
              "x": 2.203,
              "y": -0.843,
              "z": -1.5702
            }
          },
          {
            "elSymbol": "H",
            "p3d": {
              "x": 4.3384,
              "y": -0.3241,
              "z": -1.6106
            }
          },
          {
            "elSymbol": "H",
            "p3d": {
              "x": 3.6361,
              "y": 2.0524,
              "z": -2.5991
            }
          },
          {
            "elSymbol": "H",
            "p3d": {
              "x": 2.7828,
              "y": -0.3911,
              "z": -4.2916
            }
          },
          {
            "elSymbol": "H",
            "p3d": {
              "x": 0.7737,
              "y": 0.9833,
              "z": -3.15
            }
          },
          {
            "elSymbol": "H",
            "p3d": {
              "x": 1.4815,
              "y": -1.3988,
              "z": -2.1783
            }
          },
          {
            "elSymbol": "H",
            "p3d": {
              "x": 2.3445,
              "y": 1.0609,
              "z": -0.4835
            }
          },
          {
            "elSymbol": "H",
            "p3d": {
              "x": 3.8429,
              "y": -1.7623,
              "z": -2.577
            }
          },
          {
            "elSymbol": "H",
            "p3d": {
              "x": 2.7428,
              "y": 2.0124,
              "z": -4.146
            }
          },
          {
            "elSymbol": "H",
            "p3d": {
              "x": 4.4291,
              "y": 0.2183,
              "z": -3.9628
            }
          },
          {
            "elSymbol": "H",
            "p3d": {
              "x": 1.2819,
              "y": 2.4034,
              "z": -2.1821
            }
          },
          {
            "elSymbol": "H",
            "p3d": {
              "x": 2.3734,
              "y": -1.3662,
              "z": -0.6149
            }
          }
        ],
        "bonds": [
          {
            "atomIds": [
              0,
              11
            ],
            "bo": "SINGLE"
          },
          {
            "atomIds": [
              0,
              4
            ],
            "bo": "SINGLE"
          },
          {
            "atomIds": [
              0,
              5
            ],
            "bo": "SINGLE"
          },
          {
            "atomIds": [
              1,
              6
            ],
            "bo": "SINGLE"
          },
          {
            "atomIds": [
              1,
              12
            ],
            "bo": "SINGLE"
          },
          {
            "atomIds": [
              1,
              3
            ],
            "bo": "SINGLE"
          },
          {
            "atomIds": [
              1,
              5
            ],
            "bo": "SINGLE"
          },
          {
            "atomIds": [
              2,
              7
            ],
            "bo": "SINGLE"
          },
          {
            "atomIds": [
              2,
              13
            ],
            "bo": "SINGLE"
          },
          {
            "atomIds": [
              2,
              4
            ],
            "bo": "SINGLE"
          },
          {
            "atomIds": [
              2,
              3
            ],
            "bo": "SINGLE"
          },
          {
            "atomIds": [
              3,
              8
            ],
            "bo": "SINGLE"
          },
          {
            "atomIds": [
              3,
              14
            ],
            "bo": "SINGLE"
          },
          {
            "atomIds": [
              4,
              9
            ],
            "bo": "SINGLE"
          },
          {
            "atomIds": [
              4,
              15
            ],
            "bo": "SINGLE"
          },
          {
            "atomIds": [
              5,
              10
            ],
            "bo": "SINGLE"
          },
          {
            "atomIds": [
              5,
              16
            ],
            "bo": "SINGLE"
          }
        ]
      },
      "vertexId": 207571,
      "buildingBlockId": 34,
      "buildingBlockType": "FRAGMENT",
      "isRCV": false,
      "properties": {
        "ATTACHMENT_POINTS": "1#SubRM:1:SINGLE:0.2917%0.3929%-0.6365 "
      },
      "uniquefyingPropertyKeys": [],
      "allowedMutationTypes": [
        "DELETE",
        "EXTEND",
        "CHANGEBRANCH",
        "CHANGELINK",
        "ADDLINK",
        "DELETELINK",
        "DELETECHAIN"
      ],
      "vertexType": "MolecularFragment"
    }
  ],
  "gEdges": [
    {
      "srcAPID": 271213,
      "trgAPID": 271216,
      "bondType": "SINGLE"
    },
    {
      "srcAPID": 271215,
      "trgAPID": 271218,
      "bondType": "SINGLE"
    },
    {
      "srcAPID": 271214,
      "trgAPID": 271219,
      "bondType": "SINGLE"
    },
    {
      "srcAPID": 271217,
      "trgAPID": 271244,
      "bondType": "SINGLE"
    }
  ],
  "gRings": [],
  "symVertices": []
}

> <SMILES>
[Pt](C#O)(C#N)([P]1(C([H])([H])C(C(C(C([H])(C1([H])[H])[H])([H])[H])([H])[H])([H])[H])C2([H])C(C([H])([H])C(C([H])([H])C2([H])[H])([H])[H])([H])[H])C#N

$$$$
