M00010958
  CDK     04222212353D

 58 58  0  0  0  0  0  0  0  0999 V2000
   -2.9953    1.3910    0.2142 Pt  0  0  0  0  0  0  0  0  0  0  0  0
   -4.9224    1.5955    0.0245 C   0  0  0  0  0  0  0  0  0  0  0  0
   -6.0536    1.7045   -0.0797 O   0  0  0  0  0  0  0  0  0  0  0  0
   -2.7379    3.3523    0.1963 C   0  0  0  0  0  0  0  0  0  0  0  0
   -2.6132    4.5016    0.1680 N   0  0  0  0  0  0  0  0  0  0  0  0
   -0.7155    1.1900    0.4052 P   0  0  0  0  0  0  0  0  0  0  0  0
   -0.0369    0.5291   -1.1933 C   0  0  0  0  0  0  0  0  0  0  0  0
    0.6221   -0.6146   -0.9098 C   0  0  0  0  0  0  0  0  0  0  0  0
    0.6171   -1.0392    0.5380 C   0  0  0  0  0  0  0  0  0  0  0  0
   -0.0553   -0.2382    1.3932 C   0  0  0  0  0  0  0  0  0  0  0  0
    2.8059   -2.2765    0.7784 C   0  0  0  0  0  0  0  0  0  0  0  0
    1.2926   -2.3091    1.0183 C   0  0  0  0  0  0  0  0  0  0  0  0
    0.6289   -3.5507    0.4151 C   0  0  0  0  0  0  0  0  0  0  0  0
   -0.4649   -3.4995    0.5056 H   0  0  0  0  0  0  0  0  0  0  0  0
    0.9612   -4.4625    0.9228 H   0  0  0  0  0  0  0  0  0  0  0  0
    0.8594   -3.6689   -0.6519 H   0  0  0  0  0  0  0  0  0  0  0  0
    3.2988   -3.1149    1.2842 H   0  0  0  0  0  0  0  0  0  0  0  0
    3.0573   -2.3527   -0.2885 H   0  0  0  0  0  0  0  0  0  0  0  0
    3.2513   -1.3509    1.1584 H   0  0  0  0  0  0  0  0  0  0  0  0
    1.1477   -2.3717    2.1383 H   0  0  0  0  0  0  0  0  0  0  0  0
    2.4505   -0.6647   -2.6223 C   0  0  0  0  0  0  0  0  0  0  0  0
    1.3146   -1.4572   -1.9623 C   0  0  0  0  0  0  0  0  0  0  0  0
    0.3068   -1.9752   -2.9949 C   0  0  0  0  0  0  0  0  0  0  0  0
   -0.5411   -2.4757   -2.5101 H   0  0  0  0  0  0  0  0  0  0  0  0
    0.7718   -2.6905   -3.6808 H   0  0  0  0  0  0  0  0  0  0  0  0
   -0.1090   -1.1571   -3.6032 H   0  0  0  0  0  0  0  0  0  0  0  0
    3.0101   -1.2932   -3.3243 H   0  0  0  0  0  0  0  0  0  0  0  0
    2.0773    0.1975   -3.1878 H   0  0  0  0  0  0  0  0  0  0  0  0
    3.1583   -0.2844   -1.8776 H   0  0  0  0  0  0  0  0  0  0  0  0
    1.7812   -2.3609   -1.4761 H   0  0  0  0  0  0  0  0  0  0  0  0
    0.3340    2.5422   -2.6501 C   0  0  0  0  0  0  0  0  0  0  0  0
   -0.3689    1.1874   -2.4943 C   0  0  0  0  0  0  0  0  0  0  0  0
   -1.8924    1.3249   -2.6635 C   0  0  0  0  0  0  0  0  0  0  0  0
   -2.4276    0.4219   -2.3230 H   0  0  0  0  0  0  0  0  0  0  0  0
   -2.1503    1.4707   -3.7196 H   0  0  0  0  0  0  0  0  0  0  0  0
   -2.3103    2.1913   -2.1254 H   0  0  0  0  0  0  0  0  0  0  0  0
    0.2813    2.8871   -3.6902 H   0  0  0  0  0  0  0  0  0  0  0  0
   -0.1274    3.3318   -2.0450 H   0  0  0  0  0  0  0  0  0  0  0  0
    1.3924    2.4836   -2.3760 H   0  0  0  0  0  0  0  0  0  0  0  0
   -0.0030    0.5131   -3.3246 H   0  0  0  0  0  0  0  0  0  0  0  0
   -0.1122    3.1672    2.3106 C   0  0  0  0  0  0  0  0  0  0  0  0
    0.2458    2.7340    0.9015 C   0  0  0  0  0  0  0  0  0  0  0  0
    0.1825    2.4419    3.0813 H   0  0  0  0  0  0  0  0  0  0  0  0
    0.4064    4.1081    2.5577 H   0  0  0  0  0  0  0  0  0  0  0  0
   -1.1844    3.3876    2.4400 H   0  0  0  0  0  0  0  0  0  0  0  0
    0.0243    3.5530    0.1779 H   0  0  0  0  0  0  0  0  0  0  0  0
    1.3342    2.5339    0.8133 H   0  0  0  0  0  0  0  0  0  0  0  0
    0.9408   -0.4007    3.6833 C   0  0  0  0  0  0  0  0  0  0  0  0
   -0.3538   -0.3419    2.8580 C   0  0  0  0  0  0  0  0  0  0  0  0
   -1.2507   -1.5579    3.1281 C   0  0  0  0  0  0  0  0  0  0  0  0
   -2.1612   -1.5238    2.5092 H   0  0  0  0  0  0  0  0  0  0  0  0
   -1.5664   -1.5958    4.1753 H   0  0  0  0  0  0  0  0  0  0  0  0
   -0.7486   -2.5039    2.8979 H   0  0  0  0  0  0  0  0  0  0  0  0
    0.7233   -0.3990    4.7569 H   0  0  0  0  0  0  0  0  0  0  0  0
    1.5121   -1.3154    3.4677 H   0  0  0  0  0  0  0  0  0  0  0  0
    1.5939    0.4514    3.4708 H   0  0  0  0  0  0  0  0  0  0  0  0
   -0.9220    0.5648    3.2045 H   0  0  0  0  0  0  0  0  0  0  0  0
   -3.5595   -0.9109    0.1796 Cl  0  0  0  0  0  0  0  0  0  0  0  0
  2  3  3  0  0  0  0
  1  2  1  0  0  0  0
  4  5  3  0  0  0  0
  1  4  1  0  0  0  0
  7  6  1  0  0  0  0
  8  7  2  0  0  0  0
  9  8  1  0  0  0  0
 10  6  1  0  0  0  0
  9 10  2  0  0  0  0
  1  6  1  0  0  0  0
 11 12  1  0  0  0  0
 12 13  1  0  0  0  0
 13 14  1  0  0  0  0
 13 15  1  0  0  0  0
 13 16  1  0  0  0  0
 11 17  1  0  0  0  0
 11 18  1  0  0  0  0
 11 19  1  0  0  0  0
 12 20  1  0  0  0  0
  9 12  1  0  0  0  0
 21 22  1  0  0  0  0
 22 23  1  0  0  0  0
 23 24  1  0  0  0  0
 23 25  1  0  0  0  0
 23 26  1  0  0  0  0
 21 27  1  0  0  0  0
 21 28  1  0  0  0  0
 21 29  1  0  0  0  0
 22 30  1  0  0  0  0
  8 22  1  0  0  0  0
 31 32  1  0  0  0  0
 32 33  1  0  0  0  0
 33 34  1  0  0  0  0
 33 35  1  0  0  0  0
 33 36  1  0  0  0  0
 31 37  1  0  0  0  0
 31 38  1  0  0  0  0
 31 39  1  0  0  0  0
 32 40  1  0  0  0  0
  7 32  1  0  0  0  0
 41 42  1  0  0  0  0
 41 43  1  0  0  0  0
 41 44  1  0  0  0  0
 41 45  1  0  0  0  0
 42 46  1  0  0  0  0
 42 47  1  0  0  0  0
  6 42  1  0  0  0  0
 48 49  1  0  0  0  0
 49 50  1  0  0  0  0
 50 51  1  0  0  0  0
 50 52  1  0  0  0  0
 50 53  1  0  0  0  0
 48 54  1  0  0  0  0
 48 55  1  0  0  0  0
 48 56  1  0  0  0  0
 49 57  1  0  0  0  0
 10 49  1  0  0  0  0
  1 58  1  0  0  0  0
M  END
> <PM6_ENERGY>
-287.011

> <UID>
XZKQCACRLUCTTG-PYTAFCEHNA-M

> <FITNESS>
1.14121

> <GCODE>
11997

> <GraphENC>
11997 72_1_0,81_66_1,116_56_1,88_67_1,245195_33_1,243939_33_1,243931_33_1,243922_32_1,245196_33_1, 72_0_81_0_SINGLE_Xlig:0_Xlig:1,72_2_116_1_SINGLE_scaff:0_MPhosphole:1,72_1_88_0_SINGLE_Xlig:0_Xlig:1,116_4_245195_0_SINGLE_LPhospholeSubBeta:0_SubRM:1,116_3_243939_0_SINGLE_LPhospholeSubBeta:0_SubRM:1,116_2_243931_0_SINGLE_LPhospholeSubAlpha:0_SubRM:1,116_0_243922_0_SINGLE_LPhospholeSubR:0_SubRS:1,116_5_245196_0_SINGLE_LPhospholeSubAlpha:0_SubRM:1, SymmetricSet [symIds=[243931, 245196]] SymmetricSet [symIds=[245195, 243939]] 

> <GraphJson>
{
  "graphId": 11997,
  "gVertices": [
    {
      "lstAPs": [
        {
          "id": 320009,
          "atomPositionNumber": 0,
          "atomPositionNumberInMol": 0,
          "apClass": {
            "rule": "Xlig",
            "subClass": 0,
            "bndTyp": "SINGLE"
          },
          "dirVec": {
            "x": -2.3339,
            "y": -0.0087,
            "z": 0.8172
          }
        },
        {
          "id": 320010,
          "atomPositionNumber": 0,
          "atomPositionNumberInMol": 0,
          "apClass": {
            "rule": "Xlig",
            "subClass": 0,
            "bndTyp": "SINGLE"
          },
          "dirVec": {
            "x": 2.336,
            "y": -5.0E-4,
            "z": 0.829
          }
        },
        {
          "id": 320011,
          "atomPositionNumber": 0,
          "atomPositionNumberInMol": 0,
          "apClass": {
            "rule": "scaff",
            "subClass": 0,
            "bndTyp": "SINGLE"
          },
          "dirVec": {
            "x": -0.0095,
            "y": 0.0046,
            "z": -1.7113
          }
        }
      ],
      "lstSymAPs": [
        {
          "symIds": [
            0,
            1
          ]
        }
      ],
      "mol": {
        "atoms": [
          {
            "elSymbol": "Pt",
            "p3d": {
              "x": -0.0098,
              "y": 0.0049,
              "z": 0.6289
            }
          },
          {
            "elSymbol": "C",
            "p3d": {
              "x": -6.0E-4,
              "y": 0.0016,
              "z": 2.5609
            }
          },
          {
            "elSymbol": "O",
            "p3d": {
              "x": 0.0025,
              "y": -0.0041,
              "z": 3.6974
            }
          },
          {
            "elSymbol": "Du",
            "p3d": {
              "x": -0.007,
              "y": 1.0013,
              "z": 0.6372
            }
          },
          {
            "elSymbol": "Du",
            "p3d": {
              "x": -0.0014,
              "y": 0.9902,
              "z": 2.5698
            }
          }
        ],
        "bonds": [
          {
            "atomIds": [
              1,
              2
            ],
            "bo": "TRIPLE"
          },
          {
            "atomIds": [
              0,
              1
            ],
            "bo": "SINGLE"
          },
          {
            "atomIds": [
              3,
              0
            ],
            "bo": "SINGLE"
          },
          {
            "atomIds": [
              4,
              1
            ],
            "bo": "SINGLE"
          }
        ]
      },
      "vertexId": 72,
      "buildingBlockId": 0,
      "buildingBlockType": "SCAFFOLD",
      "isRCV": false,
      "properties": {
        "ATTACHMENT_POINTS": "1#Xlig:0:SINGLE:-2.3339%-0.0087%0.8172,Xlig:0:SINGLE:2.3360%-0.0005%0.8290,scaff:0:SINGLE:-0.0095%0.0046%-1.7113 "
      },
      "uniquefyingPropertyKeys": [],
      "allowedMutationTypes": [
        "DELETE",
        "EXTEND",
        "CHANGEBRANCH",
        "CHANGELINK",
        "ADDLINK",
        "DELETELINK",
        "DELETECHAIN"
      ],
      "vertexType": "MolecularFragment"
    },
    {
      "lstAPs": [
        {
          "id": 320012,
          "atomPositionNumber": 0,
          "atomPositionNumberInMol": 5,
          "apClass": {
            "rule": "Xlig",
            "subClass": 1,
            "bndTyp": "SINGLE"
          },
          "dirVec": {
            "x": 0.0192,
            "y": -0.0048,
            "z": -0.5645
          }
        }
      ],
      "lstSymAPs": [],
      "mol": {
        "atoms": [
          {
            "elSymbol": "C",
            "p3d": {
              "x": -1.967,
              "y": -0.0075,
              "z": -0.4937
            }
          },
          {
            "elSymbol": "N",
            "p3d": {
              "x": -3.1263,
              "y": -0.0054,
              "z": -0.4354
            }
          },
          {
            "elSymbol": "Du",
            "p3d": {
              "x": -1.9744,
              "y": 0.9926,
              "z": -0.5036
            }
          }
        ],
        "bonds": [
          {
            "atomIds": [
              0,
              1
            ],
            "bo": "TRIPLE"
          },
          {
            "atomIds": [
              2,
              0
            ],
            "bo": "SINGLE"
          }
        ]
      },
      "vertexId": 81,
      "buildingBlockId": 65,
      "buildingBlockType": "FRAGMENT",
      "isRCV": false,
      "properties": {
        "ATTACHMENT_POINTS": "1#Xlig:1:SINGLE:0.0192%-0.0048%-0.5645 "
      },
      "uniquefyingPropertyKeys": [],
      "allowedMutationTypes": [
        "DELETE",
        "EXTEND",
        "CHANGEBRANCH",
        "CHANGELINK",
        "ADDLINK",
        "DELETELINK",
        "DELETECHAIN"
      ],
      "vertexType": "MolecularFragment"
    },
    {
      "lstAPs": [
        {
          "id": 320013,
          "atomPositionNumber": 0,
          "atomPositionNumberInMol": 8,
          "apClass": {
            "rule": "LPhospholeSubR",
            "subClass": 0,
            "bndTyp": "SINGLE"
          },
          "dirVec": {
            "x": -0.1583,
            "y": -3.1445,
            "z": -2.0557
          }
        },
        {
          "id": 320014,
          "atomPositionNumber": 0,
          "atomPositionNumberInMol": 8,
          "apClass": {
            "rule": "MPhosphole",
            "subClass": 1,
            "bndTyp": "SINGLE"
          },
          "dirVec": {
            "x": -0.003,
            "y": -0.0033,
            "z": 0.0013
          }
        },
        {
          "id": 320015,
          "atomPositionNumber": 1,
          "atomPositionNumberInMol": 9,
          "apClass": {
            "rule": "LPhospholeSubAlpha",
            "subClass": 0,
            "bndTyp": "SINGLE"
          },
          "dirVec": {
            "x": 3.2115,
            "y": -2.5535,
            "z": -1.0585
          }
        },
        {
          "id": 320016,
          "atomPositionNumber": 2,
          "atomPositionNumberInMol": 10,
          "apClass": {
            "rule": "LPhospholeSubBeta",
            "subClass": 0,
            "bndTyp": "SINGLE"
          },
          "dirVec": {
            "x": 4.2656,
            "y": -1.1283,
            "z": -3.6461
          }
        },
        {
          "id": 320017,
          "atomPositionNumber": 3,
          "atomPositionNumberInMol": 11,
          "apClass": {
            "rule": "LPhospholeSubBeta",
            "subClass": 0,
            "bndTyp": "SINGLE"
          },
          "dirVec": {
            "x": 2.053,
            "y": 0.1072,
            "z": -5.2957
          }
        },
        {
          "id": 320018,
          "atomPositionNumber": 4,
          "atomPositionNumberInMol": 12,
          "apClass": {
            "rule": "LPhospholeSubAlpha",
            "subClass": 0,
            "bndTyp": "SINGLE"
          },
          "dirVec": {
            "x": -0.7998,
            "y": -0.3182,
            "z": -4.0879
          }
        }
      ],
      "lstSymAPs": [
        {
          "symIds": [
            2,
            5
          ]
        },
        {
          "symIds": [
            3,
            4
          ]
        }
      ],
      "mol": {
        "atoms": [
          {
            "elSymbol": "P",
            "p3d": {
              "x": 0.6287,
              "y": -1.5145,
              "z": -1.8705
            }
          },
          {
            "elSymbol": "C",
            "p3d": {
              "x": 2.405,
              "y": -1.8003,
              "z": -2.0775
            }
          },
          {
            "elSymbol": "C",
            "p3d": {
              "x": 2.8079,
              "y": -1.1982,
              "z": -3.1964
            }
          },
          {
            "elSymbol": "C",
            "p3d": {
              "x": 1.7253,
              "y": -0.6,
              "z": -4.0254
            }
          },
          {
            "elSymbol": "C",
            "p3d": {
              "x": 0.5038,
              "y": -0.7649,
              "z": -3.5177
            }
          }
        ],
        "bonds": [
          {
            "atomIds": [
              1,
              0
            ],
            "bo": "SINGLE"
          },
          {
            "atomIds": [
              2,
              1
            ],
            "bo": "DOUBLE"
          },
          {
            "atomIds": [
              3,
              2
            ],
            "bo": "SINGLE"
          },
          {
            "atomIds": [
              4,
              0
            ],
            "bo": "SINGLE"
          },
          {
            "atomIds": [
              3,
              4
            ],
            "bo": "DOUBLE"
          }
        ]
      },
      "vertexId": 116,
      "buildingBlockId": 55,
      "buildingBlockType": "FRAGMENT",
      "isRCV": false,
      "properties": {
        "ATTACHMENT_POINTS": "1#LPhospholeSubR:0:SINGLE:-0.1583%-3.1445%-2.0557,MPhosphole:1:SINGLE:-0.0030%-0.0033%0.0013 2#LPhospholeSubAlpha:0:SINGLE:3.2115%-2.5535%-1.0585 3#LPhospholeSubBeta:0:SINGLE:4.2656%-1.1283%-3.6461 4#LPhospholeSubBeta:0:SINGLE:2.0530%0.1072%-5.2957 5#LPhospholeSubAlpha:0:SINGLE:-0.7998%-0.3182%-4.0879 "
      },
      "uniquefyingPropertyKeys": [],
      "allowedMutationTypes": [
        "DELETE",
        "EXTEND",
        "CHANGEBRANCH",
        "CHANGELINK",
        "ADDLINK",
        "DELETELINK",
        "DELETECHAIN"
      ],
      "vertexType": "MolecularFragment"
    },
    {
      "lstAPs": [
        {
          "id": 320019,
          "atomPositionNumber": 0,
          "atomPositionNumberInMol": 60,
          "apClass": {
            "rule": "Xlig",
            "subClass": 1,
            "bndTyp": "SINGLE"
          },
          "dirVec": {
            "x": -0.0053,
            "y": -0.0027,
            "z": 0.63
          }
        }
      ],
      "lstSymAPs": [],
      "mol": {
        "atoms": [
          {
            "elSymbol": "Cl",
            "p3d": {
              "x": 2.3243,
              "y": -0.0063,
              "z": 0.8189
            }
          }
        ],
        "bonds": []
      },
      "vertexId": 88,
      "buildingBlockId": 66,
      "buildingBlockType": "FRAGMENT",
      "isRCV": false,
      "properties": {
        "ATTACHMENT_POINTS": "1#Xlig:1:SINGLE:-0.0053%-0.0027%0.6300 "
      },
      "uniquefyingPropertyKeys": [],
      "allowedMutationTypes": [
        "DELETE",
        "EXTEND",
        "CHANGEBRANCH",
        "CHANGELINK",
        "ADDLINK",
        "DELETELINK",
        "DELETECHAIN"
      ],
      "vertexType": "MolecularFragment"
    },
    {
      "lstAPs": [
        {
          "id": 320052,
          "atomPositionNumber": 1,
          "atomPositionNumberInMol": 14,
          "apClass": {
            "rule": "SubRM",
            "subClass": 1,
            "bndTyp": "SINGLE"
          },
          "dirVec": {
            "x": 0.2868,
            "y": 0.385,
            "z": -0.643
          }
        }
      ],
      "lstSymAPs": [],
      "mol": {
        "atoms": [
          {
            "elSymbol": "C",
            "p3d": {
              "x": 1.141,
              "y": 1.0262,
              "z": 1.6347
            }
          },
          {
            "elSymbol": "C",
            "p3d": {
              "x": 0.3967,
              "y": -0.0479,
              "z": 0.8227
            }
          },
          {
            "elSymbol": "C",
            "p3d": {
              "x": 1.1459,
              "y": -1.371,
              "z": 0.9201
            }
          },
          {
            "elSymbol": "H",
            "p3d": {
              "x": 2.1461,
              "y": -1.2583,
              "z": 0.4976
            }
          },
          {
            "elSymbol": "H",
            "p3d": {
              "x": 0.6013,
              "y": -2.1408,
              "z": 0.3461
            }
          },
          {
            "elSymbol": "H",
            "p3d": {
              "x": 1.2113,
              "y": -1.6946,
              "z": 1.9559
            }
          },
          {
            "elSymbol": "H",
            "p3d": {
              "x": 2.1541,
              "y": 1.1435,
              "z": 1.2119
            }
          },
          {
            "elSymbol": "H",
            "p3d": {
              "x": 0.6143,
              "y": 1.976,
              "z": 1.5626
            }
          },
          {
            "elSymbol": "H",
            "p3d": {
              "x": 1.2058,
              "y": 0.7088,
              "z": 2.6868
            }
          },
          {
            "elSymbol": "H",
            "p3d": {
              "x": -0.6215,
              "y": -0.1789,
              "z": 1.2377
            }
          }
        ],
        "bonds": [
          {
            "atomIds": [
              0,
              1
            ],
            "bo": "SINGLE"
          },
          {
            "atomIds": [
              1,
              2
            ],
            "bo": "SINGLE"
          },
          {
            "atomIds": [
              2,
              3
            ],
            "bo": "SINGLE"
          },
          {
            "atomIds": [
              2,
              4
            ],
            "bo": "SINGLE"
          },
          {
            "atomIds": [
              2,
              5
            ],
            "bo": "SINGLE"
          },
          {
            "atomIds": [
              0,
              6
            ],
            "bo": "SINGLE"
          },
          {
            "atomIds": [
              0,
              7
            ],
            "bo": "SINGLE"
          },
          {
            "atomIds": [
              0,
              8
            ],
            "bo": "SINGLE"
          },
          {
            "atomIds": [
              1,
              9
            ],
            "bo": "SINGLE"
          }
        ]
      },
      "vertexId": 245195,
      "buildingBlockId": 32,
      "buildingBlockType": "FRAGMENT",
      "isRCV": false,
      "properties": {
        "ATTACHMENT_POINTS": "2#SubRM:1:SINGLE:0.2868%0.3850%-0.6430 "
      },
      "uniquefyingPropertyKeys": [],
      "allowedMutationTypes": [
        "DELETE",
        "EXTEND",
        "CHANGEBRANCH",
        "CHANGELINK",
        "ADDLINK",
        "DELETELINK",
        "DELETECHAIN"
      ],
      "vertexType": "MolecularFragment"
    },
    {
      "lstAPs": [
        {
          "id": 320053,
          "atomPositionNumber": 1,
          "atomPositionNumberInMol": 24,
          "apClass": {
            "rule": "SubRM",
            "subClass": 1,
            "bndTyp": "SINGLE"
          },
          "dirVec": {
            "x": 0.2868,
            "y": 0.385,
            "z": -0.643
          }
        }
      ],
      "lstSymAPs": [],
      "mol": {
        "atoms": [
          {
            "elSymbol": "C",
            "p3d": {
              "x": 1.141,
              "y": 1.0262,
              "z": 1.6347
            }
          },
          {
            "elSymbol": "C",
            "p3d": {
              "x": 0.3967,
              "y": -0.0479,
              "z": 0.8227
            }
          },
          {
            "elSymbol": "C",
            "p3d": {
              "x": 1.1459,
              "y": -1.371,
              "z": 0.9201
            }
          },
          {
            "elSymbol": "H",
            "p3d": {
              "x": 2.1461,
              "y": -1.2583,
              "z": 0.4976
            }
          },
          {
            "elSymbol": "H",
            "p3d": {
              "x": 0.6013,
              "y": -2.1408,
              "z": 0.3461
            }
          },
          {
            "elSymbol": "H",
            "p3d": {
              "x": 1.2113,
              "y": -1.6946,
              "z": 1.9559
            }
          },
          {
            "elSymbol": "H",
            "p3d": {
              "x": 2.1541,
              "y": 1.1435,
              "z": 1.2119
            }
          },
          {
            "elSymbol": "H",
            "p3d": {
              "x": 0.6143,
              "y": 1.976,
              "z": 1.5626
            }
          },
          {
            "elSymbol": "H",
            "p3d": {
              "x": 1.2058,
              "y": 0.7088,
              "z": 2.6868
            }
          },
          {
            "elSymbol": "H",
            "p3d": {
              "x": -0.6215,
              "y": -0.1789,
              "z": 1.2377
            }
          }
        ],
        "bonds": [
          {
            "atomIds": [
              0,
              1
            ],
            "bo": "SINGLE"
          },
          {
            "atomIds": [
              1,
              2
            ],
            "bo": "SINGLE"
          },
          {
            "atomIds": [
              2,
              3
            ],
            "bo": "SINGLE"
          },
          {
            "atomIds": [
              2,
              4
            ],
            "bo": "SINGLE"
          },
          {
            "atomIds": [
              2,
              5
            ],
            "bo": "SINGLE"
          },
          {
            "atomIds": [
              0,
              6
            ],
            "bo": "SINGLE"
          },
          {
            "atomIds": [
              0,
              7
            ],
            "bo": "SINGLE"
          },
          {
            "atomIds": [
              0,
              8
            ],
            "bo": "SINGLE"
          },
          {
            "atomIds": [
              1,
              9
            ],
            "bo": "SINGLE"
          }
        ]
      },
      "vertexId": 243939,
      "buildingBlockId": 32,
      "buildingBlockType": "FRAGMENT",
      "isRCV": false,
      "properties": {
        "ATTACHMENT_POINTS": "2#SubRM:1:SINGLE:0.2868%0.3850%-0.6430 "
      },
      "uniquefyingPropertyKeys": [],
      "allowedMutationTypes": [
        "DELETE",
        "EXTEND",
        "CHANGEBRANCH",
        "CHANGELINK",
        "ADDLINK",
        "DELETELINK",
        "DELETECHAIN"
      ],
      "vertexType": "MolecularFragment"
    },
    {
      "lstAPs": [
        {
          "id": 320054,
          "atomPositionNumber": 1,
          "atomPositionNumberInMol": 34,
          "apClass": {
            "rule": "SubRM",
            "subClass": 1,
            "bndTyp": "SINGLE"
          },
          "dirVec": {
            "x": 0.2868,
            "y": 0.385,
            "z": -0.643
          }
        }
      ],
      "lstSymAPs": [],
      "mol": {
        "atoms": [
          {
            "elSymbol": "C",
            "p3d": {
              "x": 1.141,
              "y": 1.0262,
              "z": 1.6347
            }
          },
          {
            "elSymbol": "C",
            "p3d": {
              "x": 0.3967,
              "y": -0.0479,
              "z": 0.8227
            }
          },
          {
            "elSymbol": "C",
            "p3d": {
              "x": 1.1459,
              "y": -1.371,
              "z": 0.9201
            }
          },
          {
            "elSymbol": "H",
            "p3d": {
              "x": 2.1461,
              "y": -1.2583,
              "z": 0.4976
            }
          },
          {
            "elSymbol": "H",
            "p3d": {
              "x": 0.6013,
              "y": -2.1408,
              "z": 0.3461
            }
          },
          {
            "elSymbol": "H",
            "p3d": {
              "x": 1.2113,
              "y": -1.6946,
              "z": 1.9559
            }
          },
          {
            "elSymbol": "H",
            "p3d": {
              "x": 2.1541,
              "y": 1.1435,
              "z": 1.2119
            }
          },
          {
            "elSymbol": "H",
            "p3d": {
              "x": 0.6143,
              "y": 1.976,
              "z": 1.5626
            }
          },
          {
            "elSymbol": "H",
            "p3d": {
              "x": 1.2058,
              "y": 0.7088,
              "z": 2.6868
            }
          },
          {
            "elSymbol": "H",
            "p3d": {
              "x": -0.6215,
              "y": -0.1789,
              "z": 1.2377
            }
          }
        ],
        "bonds": [
          {
            "atomIds": [
              0,
              1
            ],
            "bo": "SINGLE"
          },
          {
            "atomIds": [
              1,
              2
            ],
            "bo": "SINGLE"
          },
          {
            "atomIds": [
              2,
              3
            ],
            "bo": "SINGLE"
          },
          {
            "atomIds": [
              2,
              4
            ],
            "bo": "SINGLE"
          },
          {
            "atomIds": [
              2,
              5
            ],
            "bo": "SINGLE"
          },
          {
            "atomIds": [
              0,
              6
            ],
            "bo": "SINGLE"
          },
          {
            "atomIds": [
              0,
              7
            ],
            "bo": "SINGLE"
          },
          {
            "atomIds": [
              0,
              8
            ],
            "bo": "SINGLE"
          },
          {
            "atomIds": [
              1,
              9
            ],
            "bo": "SINGLE"
          }
        ]
      },
      "vertexId": 243931,
      "buildingBlockId": 32,
      "buildingBlockType": "FRAGMENT",
      "isRCV": false,
      "properties": {
        "ATTACHMENT_POINTS": "2#SubRM:1:SINGLE:0.2868%0.3850%-0.6430 "
      },
      "uniquefyingPropertyKeys": [],
      "allowedMutationTypes": [
        "DELETE",
        "EXTEND",
        "CHANGEBRANCH",
        "CHANGELINK",
        "ADDLINK",
        "DELETELINK",
        "DELETECHAIN"
      ],
      "vertexType": "MolecularFragment"
    },
    {
      "lstAPs": [
        {
          "id": 320055,
          "atomPositionNumber": 1,
          "atomPositionNumberInMol": 44,
          "apClass": {
            "rule": "SubRS",
            "subClass": 1,
            "bndTyp": "SINGLE"
          },
          "dirVec": {
            "x": 0.2985,
            "y": 0.384,
            "z": -0.6258
          }
        }
      ],
      "lstSymAPs": [],
      "mol": {
        "atoms": [
          {
            "elSymbol": "C",
            "p3d": {
              "x": -1.0244,
              "y": -0.2225,
              "z": 1.3991
            }
          },
          {
            "elSymbol": "C",
            "p3d": {
              "x": 0.3973,
              "y": -0.042,
              "z": 0.8195
            }
          },
          {
            "elSymbol": "H",
            "p3d": {
              "x": -1.5635,
              "y": -0.9908,
              "z": 0.8263
            }
          },
          {
            "elSymbol": "H",
            "p3d": {
              "x": -0.941,
              "y": -0.535,
              "z": 2.446
            }
          },
          {
            "elSymbol": "H",
            "p3d": {
              "x": -1.5586,
              "y": 0.7335,
              "z": 1.3382
            }
          },
          {
            "elSymbol": "H",
            "p3d": {
              "x": 0.9335,
              "y": 0.7221,
              "z": 1.4011
            }
          },
          {
            "elSymbol": "H",
            "p3d": {
              "x": 0.927,
              "y": -1.0102,
              "z": 0.9001
            }
          }
        ],
        "bonds": [
          {
            "atomIds": [
              0,
              1
            ],
            "bo": "SINGLE"
          },
          {
            "atomIds": [
              0,
              2
            ],
            "bo": "SINGLE"
          },
          {
            "atomIds": [
              0,
              3
            ],
            "bo": "SINGLE"
          },
          {
            "atomIds": [
              0,
              4
            ],
            "bo": "SINGLE"
          },
          {
            "atomIds": [
              1,
              5
            ],
            "bo": "SINGLE"
          },
          {
            "atomIds": [
              1,
              6
            ],
            "bo": "SINGLE"
          }
        ]
      },
      "vertexId": 243922,
      "buildingBlockId": 31,
      "buildingBlockType": "FRAGMENT",
      "isRCV": false,
      "properties": {
        "ATTACHMENT_POINTS": "2#SubRS:1:SINGLE:0.2985%0.3840%-0.6258 "
      },
      "uniquefyingPropertyKeys": [],
      "allowedMutationTypes": [
        "DELETE",
        "EXTEND",
        "CHANGEBRANCH",
        "CHANGELINK",
        "ADDLINK",
        "DELETELINK",
        "DELETECHAIN"
      ],
      "vertexType": "MolecularFragment"
    },
    {
      "lstAPs": [
        {
          "id": 320056,
          "atomPositionNumber": 1,
          "atomPositionNumberInMol": 51,
          "apClass": {
            "rule": "SubRM",
            "subClass": 1,
            "bndTyp": "SINGLE"
          },
          "dirVec": {
            "x": 0.2868,
            "y": 0.385,
            "z": -0.643
          }
        }
      ],
      "lstSymAPs": [],
      "mol": {
        "atoms": [
          {
            "elSymbol": "C",
            "p3d": {
              "x": 1.141,
              "y": 1.0262,
              "z": 1.6347
            }
          },
          {
            "elSymbol": "C",
            "p3d": {
              "x": 0.3967,
              "y": -0.0479,
              "z": 0.8227
            }
          },
          {
            "elSymbol": "C",
            "p3d": {
              "x": 1.1459,
              "y": -1.371,
              "z": 0.9201
            }
          },
          {
            "elSymbol": "H",
            "p3d": {
              "x": 2.1461,
              "y": -1.2583,
              "z": 0.4976
            }
          },
          {
            "elSymbol": "H",
            "p3d": {
              "x": 0.6013,
              "y": -2.1408,
              "z": 0.3461
            }
          },
          {
            "elSymbol": "H",
            "p3d": {
              "x": 1.2113,
              "y": -1.6946,
              "z": 1.9559
            }
          },
          {
            "elSymbol": "H",
            "p3d": {
              "x": 2.1541,
              "y": 1.1435,
              "z": 1.2119
            }
          },
          {
            "elSymbol": "H",
            "p3d": {
              "x": 0.6143,
              "y": 1.976,
              "z": 1.5626
            }
          },
          {
            "elSymbol": "H",
            "p3d": {
              "x": 1.2058,
              "y": 0.7088,
              "z": 2.6868
            }
          },
          {
            "elSymbol": "H",
            "p3d": {
              "x": -0.6215,
              "y": -0.1789,
              "z": 1.2377
            }
          }
        ],
        "bonds": [
          {
            "atomIds": [
              0,
              1
            ],
            "bo": "SINGLE"
          },
          {
            "atomIds": [
              1,
              2
            ],
            "bo": "SINGLE"
          },
          {
            "atomIds": [
              2,
              3
            ],
            "bo": "SINGLE"
          },
          {
            "atomIds": [
              2,
              4
            ],
            "bo": "SINGLE"
          },
          {
            "atomIds": [
              2,
              5
            ],
            "bo": "SINGLE"
          },
          {
            "atomIds": [
              0,
              6
            ],
            "bo": "SINGLE"
          },
          {
            "atomIds": [
              0,
              7
            ],
            "bo": "SINGLE"
          },
          {
            "atomIds": [
              0,
              8
            ],
            "bo": "SINGLE"
          },
          {
            "atomIds": [
              1,
              9
            ],
            "bo": "SINGLE"
          }
        ]
      },
      "vertexId": 245196,
      "buildingBlockId": 32,
      "buildingBlockType": "FRAGMENT",
      "isRCV": false,
      "properties": {
        "ATTACHMENT_POINTS": "2#SubRM:1:SINGLE:0.2868%0.3850%-0.6430 "
      },
      "uniquefyingPropertyKeys": [],
      "allowedMutationTypes": [
        "DELETE",
        "EXTEND",
        "CHANGEBRANCH",
        "CHANGELINK",
        "ADDLINK",
        "DELETELINK",
        "DELETECHAIN"
      ],
      "vertexType": "MolecularFragment"
    }
  ],
  "gEdges": [
    {
      "srcAPID": 320009,
      "trgAPID": 320012,
      "bondType": "SINGLE"
    },
    {
      "srcAPID": 320011,
      "trgAPID": 320014,
      "bondType": "SINGLE"
    },
    {
      "srcAPID": 320010,
      "trgAPID": 320019,
      "bondType": "SINGLE"
    },
    {
      "srcAPID": 320017,
      "trgAPID": 320052,
      "bondType": "SINGLE"
    },
    {
      "srcAPID": 320016,
      "trgAPID": 320053,
      "bondType": "SINGLE"
    },
    {
      "srcAPID": 320015,
      "trgAPID": 320054,
      "bondType": "SINGLE"
    },
    {
      "srcAPID": 320013,
      "trgAPID": 320055,
      "bondType": "SINGLE"
    },
    {
      "srcAPID": 320018,
      "trgAPID": 320056,
      "bondType": "SINGLE"
    }
  ],
  "gRings": [],
  "symVertices": [
    {
      "symIds": [
        243931,
        245196
      ]
    },
    {
      "symIds": [
        245195,
        243939
      ]
    }
  ]
}

> <SMILES>
[Pt](C#O)(C#N)([P]1(C(=C(C(=C1C(C([H])([H])[H])(C([H])([H])[H])[H])C(C([H])([H])[H])(C([H])([H])[H])[H])C(C([H])([H])[H])(C([H])([H])[H])[H])C(C([H])([H])[H])(C([H])([H])[H])[H])C(C([H])([H])[H])([H])[H])Cl

$$$$
