M00011133
  CDK     04222212393D

 22 22  0  0  0  0  0  0  0  0999 V2000
   -1.9470   -0.1145   -0.3555 Pt  0  0  0  0  0  0  0  0  0  0  0  0
   -3.9177   -0.0345   -0.4664 C   0  0  0  0  0  0  0  0  0  0  0  0
   -5.0529    0.0192   -0.5340 O   0  0  0  0  0  0  0  0  0  0  0  0
   -1.7722    1.7642    0.2472 C   0  0  0  0  0  0  0  0  0  0  0  0
   -1.6956    2.8584    0.6107 N   0  0  0  0  0  0  0  0  0  0  0  0
    0.2835   -0.0032   -0.1368 P   0  0  0  0  0  0  0  0  0  0  0  0
    0.9951    1.1637   -1.1221 O   0  0  0  0  0  0  0  0  0  0  0  0
    1.2378   -1.3123   -0.6050 O   0  0  0  0  0  0  0  0  0  0  0  0
    2.0445    0.5529   -1.9231 C   0  0  0  0  0  0  0  0  0  0  0  0
    3.0013    0.9485   -1.5289 H   0  0  0  0  0  0  0  0  0  0  0  0
    1.8717    0.9560   -2.9421 H   0  0  0  0  0  0  0  0  0  0  0  0
    1.9248   -0.9731   -1.8377 C   0  0  0  0  0  0  0  0  0  0  0  0
    1.3503   -1.4254   -2.6730 H   0  0  0  0  0  0  0  0  0  0  0  0
    2.8989   -1.4937   -1.7441 H   0  0  0  0  0  0  0  0  0  0  0  0
   -0.3160   -0.4149    2.4838 C   0  0  0  0  0  0  0  0  0  0  0  0
    0.7311    0.3013    1.6465 C   0  0  0  0  0  0  0  0  0  0  0  0
   -0.2668   -1.5123    2.3982 H   0  0  0  0  0  0  0  0  0  0  0  0
   -0.1667   -0.1913    3.5529 H   0  0  0  0  0  0  0  0  0  0  0  0
   -1.3536   -0.1039    2.2591 H   0  0  0  0  0  0  0  0  0  0  0  0
    0.7388    1.3960    1.8613 H   0  0  0  0  0  0  0  0  0  0  0  0
    1.7546   -0.0609    1.8770 H   0  0  0  0  0  0  0  0  0  0  0  0
   -2.3440   -2.3204   -1.0680 Cl  0  0  0  0  0  0  0  0  0  0  0  0
  2  3  3  0  0  0  0
  1  2  1  0  0  0  0
  4  5  3  0  0  0  0
  1  4  1  0  0  0  0
  7  6  1  0  0  0  0
  8  6  1  0  0  0  0
  9  7  1  0  0  0  0
  9 12  1  0  0  0  0
 10  9  1  0  0  0  0
 11  9  1  0  0  0  0
 12  8  1  0  0  0  0
 13 12  1  0  0  0  0
 14 12  1  0  0  0  0
  1  6  1  0  0  0  0
 15 16  1  0  0  0  0
 15 17  1  0  0  0  0
 15 18  1  0  0  0  0
 15 19  1  0  0  0  0
 16 20  1  0  0  0  0
 16 21  1  0  0  0  0
  6 16  1  0  0  0  0
  1 22  1  0  0  0  0
M  END
> <PM6_ENERGY>
-512.280

> <UID>
LFOWNOXXFXMHNQ-KLWMZXJTNA-M

> <FITNESS>
1.13848

> <GCODE>
12172

> <GraphENC>
12172 72_1_0,81_66_1,118_58_1,88_67_1,249439_32_1, 72_0_81_0_SINGLE_Xlig:0_Xlig:1,72_2_118_1_SINGLE_scaff:0_MPhosphonite:1,72_1_88_0_SINGLE_Xlig:0_Xlig:1,118_0_249439_0_SINGLE_LPhosphoniteSubR:0_SubRS:1, 

> <GraphJson>
{
  "graphId": 12172,
  "gVertices": [
    {
      "lstAPs": [
        {
          "id": 325441,
          "atomPositionNumber": 0,
          "atomPositionNumberInMol": 0,
          "apClass": {
            "rule": "Xlig",
            "subClass": 0,
            "bndTyp": "SINGLE"
          },
          "dirVec": {
            "x": -2.3339,
            "y": -0.0087,
            "z": 0.8172
          }
        },
        {
          "id": 325442,
          "atomPositionNumber": 0,
          "atomPositionNumberInMol": 0,
          "apClass": {
            "rule": "Xlig",
            "subClass": 0,
            "bndTyp": "SINGLE"
          },
          "dirVec": {
            "x": 2.336,
            "y": -5.0E-4,
            "z": 0.829
          }
        },
        {
          "id": 325443,
          "atomPositionNumber": 0,
          "atomPositionNumberInMol": 0,
          "apClass": {
            "rule": "scaff",
            "subClass": 0,
            "bndTyp": "SINGLE"
          },
          "dirVec": {
            "x": -0.0095,
            "y": 0.0046,
            "z": -1.7113
          }
        }
      ],
      "lstSymAPs": [
        {
          "symIds": [
            0,
            1
          ]
        }
      ],
      "mol": {
        "atoms": [
          {
            "elSymbol": "Pt",
            "p3d": {
              "x": -0.0098,
              "y": 0.0049,
              "z": 0.6289
            }
          },
          {
            "elSymbol": "C",
            "p3d": {
              "x": -6.0E-4,
              "y": 0.0016,
              "z": 2.5609
            }
          },
          {
            "elSymbol": "O",
            "p3d": {
              "x": 0.0025,
              "y": -0.0041,
              "z": 3.6974
            }
          },
          {
            "elSymbol": "Du",
            "p3d": {
              "x": -0.007,
              "y": 1.0013,
              "z": 0.6372
            }
          },
          {
            "elSymbol": "Du",
            "p3d": {
              "x": -0.0014,
              "y": 0.9902,
              "z": 2.5698
            }
          }
        ],
        "bonds": [
          {
            "atomIds": [
              1,
              2
            ],
            "bo": "TRIPLE"
          },
          {
            "atomIds": [
              0,
              1
            ],
            "bo": "SINGLE"
          },
          {
            "atomIds": [
              3,
              0
            ],
            "bo": "SINGLE"
          },
          {
            "atomIds": [
              4,
              1
            ],
            "bo": "SINGLE"
          }
        ]
      },
      "vertexId": 72,
      "buildingBlockId": 0,
      "buildingBlockType": "SCAFFOLD",
      "isRCV": false,
      "properties": {
        "ATTACHMENT_POINTS": "1#Xlig:0:SINGLE:-2.3339%-0.0087%0.8172,Xlig:0:SINGLE:2.3360%-0.0005%0.8290,scaff:0:SINGLE:-0.0095%0.0046%-1.7113 "
      },
      "uniquefyingPropertyKeys": [],
      "allowedMutationTypes": [
        "DELETE",
        "EXTEND",
        "CHANGEBRANCH",
        "CHANGELINK",
        "ADDLINK",
        "DELETELINK",
        "DELETECHAIN"
      ],
      "vertexType": "MolecularFragment"
    },
    {
      "lstAPs": [
        {
          "id": 325444,
          "atomPositionNumber": 0,
          "atomPositionNumberInMol": 5,
          "apClass": {
            "rule": "Xlig",
            "subClass": 1,
            "bndTyp": "SINGLE"
          },
          "dirVec": {
            "x": 0.0192,
            "y": -0.0048,
            "z": -0.5645
          }
        }
      ],
      "lstSymAPs": [],
      "mol": {
        "atoms": [
          {
            "elSymbol": "C",
            "p3d": {
              "x": -1.967,
              "y": -0.0075,
              "z": -0.4937
            }
          },
          {
            "elSymbol": "N",
            "p3d": {
              "x": -3.1263,
              "y": -0.0054,
              "z": -0.4354
            }
          },
          {
            "elSymbol": "Du",
            "p3d": {
              "x": -1.9744,
              "y": 0.9926,
              "z": -0.5036
            }
          }
        ],
        "bonds": [
          {
            "atomIds": [
              0,
              1
            ],
            "bo": "TRIPLE"
          },
          {
            "atomIds": [
              2,
              0
            ],
            "bo": "SINGLE"
          }
        ]
      },
      "vertexId": 81,
      "buildingBlockId": 65,
      "buildingBlockType": "FRAGMENT",
      "isRCV": false,
      "properties": {
        "ATTACHMENT_POINTS": "1#Xlig:1:SINGLE:0.0192%-0.0048%-0.5645 "
      },
      "uniquefyingPropertyKeys": [],
      "allowedMutationTypes": [
        "DELETE",
        "EXTEND",
        "CHANGEBRANCH",
        "CHANGELINK",
        "ADDLINK",
        "DELETELINK",
        "DELETECHAIN"
      ],
      "vertexType": "MolecularFragment"
    },
    {
      "lstAPs": [
        {
          "id": 325445,
          "atomPositionNumber": 0,
          "atomPositionNumberInMol": 8,
          "apClass": {
            "rule": "LPhosphoniteSubR",
            "subClass": 0,
            "bndTyp": "SINGLE"
          },
          "dirVec": {
            "x": 4.6565,
            "y": 2.2234,
            "z": 1.9268
          }
        },
        {
          "id": 325446,
          "atomPositionNumber": 0,
          "atomPositionNumberInMol": 8,
          "apClass": {
            "rule": "MPhosphonite",
            "subClass": 1,
            "bndTyp": "SINGLE"
          },
          "dirVec": {
            "x": 2.1365,
            "y": 0.094,
            "z": 0.9533
          }
        }
      ],
      "lstSymAPs": [],
      "mol": {
        "atoms": [
          {
            "elSymbol": "P",
            "p3d": {
              "x": 3.5562,
              "y": 0.863,
              "z": 2.4507
            }
          },
          {
            "elSymbol": "O",
            "p3d": {
              "x": 4.552,
              "y": -0.2283,
              "z": 3.0401
            }
          },
          {
            "elSymbol": "O",
            "p3d": {
              "x": 2.9564,
              "y": 1.3839,
              "z": 3.8353
            }
          },
          {
            "elSymbol": "C",
            "p3d": {
              "x": 4.8994,
              "y": 0.107,
              "z": 4.4321
            }
          },
          {
            "elSymbol": "H",
            "p3d": {
              "x": 5.9328,
              "y": 0.4241,
              "z": 4.4931
            }
          },
          {
            "elSymbol": "H",
            "p3d": {
              "x": 4.7479,
              "y": -0.7734,
              "z": 5.0714
            }
          },
          {
            "elSymbol": "C",
            "p3d": {
              "x": 3.9773,
              "y": 1.2052,
              "z": 4.8652
            }
          },
          {
            "elSymbol": "H",
            "p3d": {
              "x": 3.5192,
              "y": 0.9618,
              "z": 5.809
            }
          },
          {
            "elSymbol": "H",
            "p3d": {
              "x": 4.5435,
              "y": 2.1295,
              "z": 4.9863
            }
          }
        ],
        "bonds": [
          {
            "atomIds": [
              1,
              0
            ],
            "bo": "SINGLE"
          },
          {
            "atomIds": [
              2,
              0
            ],
            "bo": "SINGLE"
          },
          {
            "atomIds": [
              3,
              1
            ],
            "bo": "SINGLE"
          },
          {
            "atomIds": [
              3,
              6
            ],
            "bo": "SINGLE"
          },
          {
            "atomIds": [
              4,
              3
            ],
            "bo": "SINGLE"
          },
          {
            "atomIds": [
              5,
              3
            ],
            "bo": "SINGLE"
          },
          {
            "atomIds": [
              6,
              2
            ],
            "bo": "SINGLE"
          },
          {
            "atomIds": [
              7,
              6
            ],
            "bo": "SINGLE"
          },
          {
            "atomIds": [
              8,
              6
            ],
            "bo": "SINGLE"
          }
        ]
      },
      "vertexId": 118,
      "buildingBlockId": 57,
      "buildingBlockType": "FRAGMENT",
      "isRCV": false,
      "properties": {
        "ATTACHMENT_POINTS": "1#LPhosphoniteSubR:0:SINGLE:4.6565%2.2234%1.9268,MPhosphonite:1:SINGLE:2.1365%0.0940%0.9533 "
      },
      "uniquefyingPropertyKeys": [],
      "allowedMutationTypes": [
        "DELETE",
        "EXTEND",
        "CHANGEBRANCH",
        "CHANGELINK",
        "ADDLINK",
        "DELETELINK",
        "DELETECHAIN"
      ],
      "vertexType": "MolecularFragment"
    },
    {
      "lstAPs": [
        {
          "id": 325447,
          "atomPositionNumber": 0,
          "atomPositionNumberInMol": 24,
          "apClass": {
            "rule": "Xlig",
            "subClass": 1,
            "bndTyp": "SINGLE"
          },
          "dirVec": {
            "x": -0.0053,
            "y": -0.0027,
            "z": 0.63
          }
        }
      ],
      "lstSymAPs": [],
      "mol": {
        "atoms": [
          {
            "elSymbol": "Cl",
            "p3d": {
              "x": 2.3243,
              "y": -0.0063,
              "z": 0.8189
            }
          }
        ],
        "bonds": []
      },
      "vertexId": 88,
      "buildingBlockId": 66,
      "buildingBlockType": "FRAGMENT",
      "isRCV": false,
      "properties": {
        "ATTACHMENT_POINTS": "1#Xlig:1:SINGLE:-0.0053%-0.0027%0.6300 "
      },
      "uniquefyingPropertyKeys": [],
      "allowedMutationTypes": [
        "DELETE",
        "EXTEND",
        "CHANGEBRANCH",
        "CHANGELINK",
        "ADDLINK",
        "DELETELINK",
        "DELETECHAIN"
      ],
      "vertexType": "MolecularFragment"
    },
    {
      "lstAPs": [
        {
          "id": 325472,
          "atomPositionNumber": 1,
          "atomPositionNumberInMol": 18,
          "apClass": {
            "rule": "SubRS",
            "subClass": 1,
            "bndTyp": "SINGLE"
          },
          "dirVec": {
            "x": 0.2985,
            "y": 0.384,
            "z": -0.6258
          }
        }
      ],
      "lstSymAPs": [],
      "mol": {
        "atoms": [
          {
            "elSymbol": "C",
            "p3d": {
              "x": -1.0244,
              "y": -0.2225,
              "z": 1.3991
            }
          },
          {
            "elSymbol": "C",
            "p3d": {
              "x": 0.3973,
              "y": -0.042,
              "z": 0.8195
            }
          },
          {
            "elSymbol": "H",
            "p3d": {
              "x": -1.5635,
              "y": -0.9908,
              "z": 0.8263
            }
          },
          {
            "elSymbol": "H",
            "p3d": {
              "x": -0.941,
              "y": -0.535,
              "z": 2.446
            }
          },
          {
            "elSymbol": "H",
            "p3d": {
              "x": -1.5586,
              "y": 0.7335,
              "z": 1.3382
            }
          },
          {
            "elSymbol": "H",
            "p3d": {
              "x": 0.9335,
              "y": 0.7221,
              "z": 1.4011
            }
          },
          {
            "elSymbol": "H",
            "p3d": {
              "x": 0.927,
              "y": -1.0102,
              "z": 0.9001
            }
          }
        ],
        "bonds": [
          {
            "atomIds": [
              0,
              1
            ],
            "bo": "SINGLE"
          },
          {
            "atomIds": [
              0,
              2
            ],
            "bo": "SINGLE"
          },
          {
            "atomIds": [
              0,
              3
            ],
            "bo": "SINGLE"
          },
          {
            "atomIds": [
              0,
              4
            ],
            "bo": "SINGLE"
          },
          {
            "atomIds": [
              1,
              5
            ],
            "bo": "SINGLE"
          },
          {
            "atomIds": [
              1,
              6
            ],
            "bo": "SINGLE"
          }
        ]
      },
      "vertexId": 249439,
      "buildingBlockId": 31,
      "buildingBlockType": "FRAGMENT",
      "isRCV": false,
      "properties": {
        "ATTACHMENT_POINTS": "2#SubRS:1:SINGLE:0.2985%0.3840%-0.6258 "
      },
      "uniquefyingPropertyKeys": [],
      "allowedMutationTypes": [
        "DELETE",
        "EXTEND",
        "CHANGEBRANCH",
        "CHANGELINK",
        "ADDLINK",
        "DELETELINK",
        "DELETECHAIN"
      ],
      "vertexType": "MolecularFragment"
    }
  ],
  "gEdges": [
    {
      "srcAPID": 325441,
      "trgAPID": 325444,
      "bondType": "SINGLE"
    },
    {
      "srcAPID": 325443,
      "trgAPID": 325446,
      "bondType": "SINGLE"
    },
    {
      "srcAPID": 325442,
      "trgAPID": 325447,
      "bondType": "SINGLE"
    },
    {
      "srcAPID": 325445,
      "trgAPID": 325472,
      "bondType": "SINGLE"
    }
  ],
  "gRings": [],
  "symVertices": []
}

> <SMILES>
[Pt](C#O)(C#N)([P]1(OC(C(O1)([H])[H])([H])[H])C(C([H])([H])[H])([H])[H])Cl

$$$$
