M00003309
  CDK     04222209523D

 52 54  0  0  0  0  0  0  0  0999 V2000
   -2.5742   -0.1250    0.3693 Pt  0  0  0  0  0  0  0  0  0  0  0  0
   -4.4992   -0.1899    0.4654 C   0  0  0  0  0  0  0  0  0  0  0  0
   -5.6416   -0.2574    0.5288 O   0  0  0  0  0  0  0  0  0  0  0  0
   -2.8004    1.6935    1.2774 O   0  0  0  0  0  0  0  0  0  0  0  0
   -2.8098    2.7055    0.2937 C   0  0  0  0  0  0  0  0  0  0  0  0
   -3.2161    3.5976    0.7913 H   0  0  0  0  0  0  0  0  0  0  0  0
   -3.4507    2.4151   -0.5482 H   0  0  0  0  0  0  0  0  0  0  0  0
   -1.7864    2.8992   -0.0533 H   0  0  0  0  0  0  0  0  0  0  0  0
   -0.3037   -0.1980    0.2535 P   0  0  0  0  0  0  0  0  0  0  0  0
    0.5122   -0.2947   -1.4362 C   0  0  0  0  0  0  0  0  0  0  0  0
    1.3012    0.7867   -1.5131 C   0  0  0  0  0  0  0  0  0  0  0  0
    2.2151    1.2945   -2.5813 C   0  0  0  0  0  0  0  0  0  0  0  0
    1.6540    1.5034   -3.5125 H   0  0  0  0  0  0  0  0  0  0  0  0
    2.9774    0.5386   -2.8478 H   0  0  0  0  0  0  0  0  0  0  0  0
    2.8650    2.5821   -2.0173 C   0  0  0  0  0  0  0  0  0  0  0  0
    2.7040    3.4317   -2.7013 H   0  0  0  0  0  0  0  0  0  0  0  0
    3.9572    2.4562   -1.9284 H   0  0  0  0  0  0  0  0  0  0  0  0
    2.2380    2.8692   -0.6307 C   0  0  0  0  0  0  0  0  0  0  0  0
    3.0136    2.9665    0.1517 H   0  0  0  0  0  0  0  0  0  0  0  0
    1.6832    3.8270   -0.6313 H   0  0  0  0  0  0  0  0  0  0  0  0
    1.3219    1.7234   -0.3444 C   0  0  0  0  0  0  0  0  0  0  0  0
    0.5572    1.4140    0.7103 C   0  0  0  0  0  0  0  0  0  0  0  0
    1.0842    1.5045    3.1542 C   0  0  0  0  0  0  0  0  0  0  0  0
    0.3075    2.1175    1.9884 C   0  0  0  0  0  0  0  0  0  0  0  0
    2.1563    1.4444    2.9405 H   0  0  0  0  0  0  0  0  0  0  0  0
    0.9574    2.1055    4.0625 H   0  0  0  0  0  0  0  0  0  0  0  0
    0.7367    0.4910    3.3913 H   0  0  0  0  0  0  0  0  0  0  0  0
   -0.7920    2.1217    2.2232 H   0  0  0  0  0  0  0  0  0  0  0  0
    0.5794    3.1903    1.8850 H   0  0  0  0  0  0  0  0  0  0  0  0
    0.4053   -1.5256    1.3245 C   0  0  0  0  0  0  0  0  0  0  0  0
    1.4543   -3.5279    2.9413 C   0  0  0  0  0  0  0  0  0  0  0  0
    1.7731   -1.5243    1.6140 C   0  0  0  0  0  0  0  0  0  0  0  0
   -0.4445   -2.5121    1.8243 C   0  0  0  0  0  0  0  0  0  0  0  0
    0.0908   -3.5193    2.6403 C   0  0  0  0  0  0  0  0  0  0  0  0
    2.2962   -2.5325    2.4286 C   0  0  0  0  0  0  0  0  0  0  0  0
    2.4442   -0.7558    1.2245 H   0  0  0  0  0  0  0  0  0  0  0  0
   -1.5180   -2.5308    1.5780 H   0  0  0  0  0  0  0  0  0  0  0  0
   -0.5617   -4.2962    3.0354 H   0  0  0  0  0  0  0  0  0  0  0  0
    3.3584   -2.5456    2.6643 H   0  0  0  0  0  0  0  0  0  0  0  0
    1.8669   -4.3117    3.5760 H   0  0  0  0  0  0  0  0  0  0  0  0
   -0.4321   -0.8879   -3.6640 C   0  0  0  0  0  0  0  0  0  0  0  0
    0.2628   -1.3937   -2.3973 C   0  0  0  0  0  0  0  0  0  0  0  0
   -1.4070   -0.4438   -3.4251 H   0  0  0  0  0  0  0  0  0  0  0  0
    0.1607   -0.1244   -4.1782 H   0  0  0  0  0  0  0  0  0  0  0  0
   -0.6070   -1.7079   -4.3690 H   0  0  0  0  0  0  0  0  0  0  0  0
   -0.3632   -2.1998   -1.9398 H   0  0  0  0  0  0  0  0  0  0  0  0
    1.2278   -1.8789   -2.6625 H   0  0  0  0  0  0  0  0  0  0  0  0
   -2.0478   -1.9340   -0.4177 O   0  0  0  0  0  0  0  0  0  0  0  0
   -3.0505   -2.4987   -1.2315 C   0  0  0  0  0  0  0  0  0  0  0  0
   -2.6206   -3.4231   -1.6418 H   0  0  0  0  0  0  0  0  0  0  0  0
   -3.3042   -1.8056   -2.0428 H   0  0  0  0  0  0  0  0  0  0  0  0
   -3.9311   -2.7343   -0.6217 H   0  0  0  0  0  0  0  0  0  0  0  0
  2  3  3  0  0  0  0
  1  2  1  0  0  0  0
  5  6  1  0  0  0  0
  5  7  1  0  0  0  0
  5  8  1  0  0  0  0
  4  5  1  0  0  0  0
  1  4  1  0  0  0  0
 10  9  1  0  0  0  0
 11 10  2  0  0  0  0
 12 11  1  0  0  0  0
 13 12  1  0  0  0  0
 14 12  1  0  0  0  0
 15 12  1  0  0  0  0
 16 15  1  0  0  0  0
 17 15  1  0  0  0  0
 18 15  1  0  0  0  0
 18 21  1  0  0  0  0
 19 18  1  0  0  0  0
 20 18  1  0  0  0  0
 21 11  1  0  0  0  0
 21 22  2  0  0  0  0
 22  9  1  0  0  0  0
  1  9  1  0  0  0  0
 23 24  1  0  0  0  0
 23 25  1  0  0  0  0
 23 26  1  0  0  0  0
 23 27  1  0  0  0  0
 24 28  1  0  0  0  0
 24 29  1  0  0  0  0
 22 24  1  0  0  0  0
 30 33  1  0  0  0  0
 33 34  2  0  0  0  0
 31 34  1  0  0  0  0
 31 35  2  0  0  0  0
 32 35  1  0  0  0  0
 30 32  2  0  0  0  0
 34 38  1  0  0  0  0
 35 39  1  0  0  0  0
 31 40  1  0  0  0  0
 32 36  1  0  0  0  0
 33 37  1  0  0  0  0
  9 30  1  0  0  0  0
 41 42  1  0  0  0  0
 41 43  1  0  0  0  0
 41 44  1  0  0  0  0
 41 45  1  0  0  0  0
 42 46  1  0  0  0  0
 42 47  1  0  0  0  0
 10 42  1  0  0  0  0
 49 50  1  0  0  0  0
 49 51  1  0  0  0  0
 49 52  1  0  0  0  0
 48 49  1  0  0  0  0
  1 48  1  0  0  0  0
M  END
> <PM6_ENERGY>
-291.149

> <UID>
BRINRORQXNGZNA-LSMWLVSVNA-N

> <FITNESS>
1.14615

> <GCODE>
4014

> <GraphENC>
4014 72_1_0,80_65_1,114_54_1,86_65_1,76979_32_1,76519_36_1,76524_32_1, 72_0_80_0_SINGLE_Xlig:0_Xlig:1,72_2_114_1_SINGLE_scaff:0_MPhosphole:1,72_1_86_0_SINGLE_Xlig:0_Xlig:1,114_3_76979_0_SINGLE_LPhospholeSubAlpha:0_SubRS:1,114_0_76519_0_SINGLE_LPhospholeSubR:0_SubArS:1,114_2_76524_0_SINGLE_LPhospholeSubAlpha:0_SubRS:1, SymmetricSet [symIds=[76979, 76524]] 

> <GraphJson>
{
  "graphId": 4014,
  "gVertices": [
    {
      "lstAPs": [
        {
          "id": 101729,
          "atomPositionNumber": 0,
          "atomPositionNumberInMol": 0,
          "apClass": {
            "rule": "Xlig",
            "subClass": 0,
            "bndTyp": "SINGLE"
          },
          "dirVec": {
            "x": -2.3339,
            "y": -0.0087,
            "z": 0.8172
          }
        },
        {
          "id": 101730,
          "atomPositionNumber": 0,
          "atomPositionNumberInMol": 0,
          "apClass": {
            "rule": "Xlig",
            "subClass": 0,
            "bndTyp": "SINGLE"
          },
          "dirVec": {
            "x": 2.336,
            "y": -5.0E-4,
            "z": 0.829
          }
        },
        {
          "id": 101731,
          "atomPositionNumber": 0,
          "atomPositionNumberInMol": 0,
          "apClass": {
            "rule": "scaff",
            "subClass": 0,
            "bndTyp": "SINGLE"
          },
          "dirVec": {
            "x": -0.0095,
            "y": 0.0046,
            "z": -1.7113
          }
        }
      ],
      "lstSymAPs": [
        {
          "symIds": [
            0,
            1
          ]
        }
      ],
      "mol": {
        "atoms": [
          {
            "elSymbol": "Pt",
            "p3d": {
              "x": -0.0098,
              "y": 0.0049,
              "z": 0.6289
            }
          },
          {
            "elSymbol": "C",
            "p3d": {
              "x": -6.0E-4,
              "y": 0.0016,
              "z": 2.5609
            }
          },
          {
            "elSymbol": "O",
            "p3d": {
              "x": 0.0025,
              "y": -0.0041,
              "z": 3.6974
            }
          },
          {
            "elSymbol": "Du",
            "p3d": {
              "x": -0.007,
              "y": 1.0013,
              "z": 0.6372
            }
          },
          {
            "elSymbol": "Du",
            "p3d": {
              "x": -0.0014,
              "y": 0.9902,
              "z": 2.5698
            }
          }
        ],
        "bonds": [
          {
            "atomIds": [
              1,
              2
            ],
            "bo": "TRIPLE"
          },
          {
            "atomIds": [
              0,
              1
            ],
            "bo": "SINGLE"
          },
          {
            "atomIds": [
              3,
              0
            ],
            "bo": "SINGLE"
          },
          {
            "atomIds": [
              4,
              1
            ],
            "bo": "SINGLE"
          }
        ]
      },
      "vertexId": 72,
      "buildingBlockId": 0,
      "buildingBlockType": "SCAFFOLD",
      "isRCV": false,
      "properties": {
        "ATTACHMENT_POINTS": "1#Xlig:0:SINGLE:-2.3339%-0.0087%0.8172,Xlig:0:SINGLE:2.3360%-0.0005%0.8290,scaff:0:SINGLE:-0.0095%0.0046%-1.7113 "
      },
      "uniquefyingPropertyKeys": [],
      "allowedMutationTypes": [
        "DELETE",
        "EXTEND",
        "CHANGEBRANCH",
        "CHANGELINK",
        "ADDLINK",
        "DELETELINK",
        "DELETECHAIN"
      ],
      "vertexType": "MolecularFragment"
    },
    {
      "lstAPs": [
        {
          "id": 101732,
          "atomPositionNumber": 0,
          "atomPositionNumberInMol": 5,
          "apClass": {
            "rule": "Xlig",
            "subClass": 1,
            "bndTyp": "SINGLE"
          },
          "dirVec": {
            "x": -0.1753,
            "y": 0.0948,
            "z": -0.4464
          }
        }
      ],
      "lstSymAPs": [],
      "mol": {
        "atoms": [
          {
            "elSymbol": "O",
            "p3d": {
              "x": -0.3534,
              "y": 2.1044,
              "z": -0.7339
            }
          },
          {
            "elSymbol": "C",
            "p3d": {
              "x": -0.5345,
              "y": 2.7646,
              "z": 0.4801
            }
          },
          {
            "elSymbol": "H",
            "p3d": {
              "x": -0.3728,
              "y": 3.8337,
              "z": 0.2724
            }
          },
          {
            "elSymbol": "H",
            "p3d": {
              "x": 0.1816,
              "y": 2.4161,
              "z": 1.2384
            }
          },
          {
            "elSymbol": "H",
            "p3d": {
              "x": -1.553,
              "y": 2.6149,
              "z": 0.8489
            }
          }
        ],
        "bonds": [
          {
            "atomIds": [
              1,
              2
            ],
            "bo": "SINGLE"
          },
          {
            "atomIds": [
              1,
              3
            ],
            "bo": "SINGLE"
          },
          {
            "atomIds": [
              1,
              4
            ],
            "bo": "SINGLE"
          },
          {
            "atomIds": [
              0,
              1
            ],
            "bo": "SINGLE"
          }
        ]
      },
      "vertexId": 80,
      "buildingBlockId": 64,
      "buildingBlockType": "FRAGMENT",
      "isRCV": false,
      "properties": {
        "ATTACHMENT_POINTS": "1#Xlig:1:SINGLE:-0.1753%0.0948%-0.4464 "
      },
      "uniquefyingPropertyKeys": [],
      "allowedMutationTypes": [
        "DELETE",
        "EXTEND",
        "CHANGEBRANCH",
        "CHANGELINK",
        "ADDLINK",
        "DELETELINK",
        "DELETECHAIN"
      ],
      "vertexType": "MolecularFragment"
    },
    {
      "lstAPs": [
        {
          "id": 101733,
          "atomPositionNumber": 0,
          "atomPositionNumberInMol": 10,
          "apClass": {
            "rule": "LPhospholeSubR",
            "subClass": 0,
            "bndTyp": "SINGLE"
          },
          "dirVec": {
            "x": 2.845,
            "y": 3.6959,
            "z": 7.5989
          }
        },
        {
          "id": 101734,
          "atomPositionNumber": 0,
          "atomPositionNumberInMol": 10,
          "apClass": {
            "rule": "MPhosphole",
            "subClass": 1,
            "bndTyp": "SINGLE"
          },
          "dirVec": {
            "x": 5.4116,
            "y": 3.8914,
            "z": 5.1007
          }
        },
        {
          "id": 101735,
          "atomPositionNumber": 1,
          "atomPositionNumberInMol": 11,
          "apClass": {
            "rule": "LPhospholeSubAlpha",
            "subClass": 0,
            "bndTyp": "SINGLE"
          },
          "dirVec": {
            "x": 1.4479,
            "y": 4.7532,
            "z": 4.2328
          }
        },
        {
          "id": 101736,
          "atomPositionNumber": 13,
          "atomPositionNumberInMol": 23,
          "apClass": {
            "rule": "LPhospholeSubAlpha",
            "subClass": 0,
            "bndTyp": "SINGLE"
          },
          "dirVec": {
            "x": 3.9785,
            "y": 0.2873,
            "z": 6.6145
          }
        }
      ],
      "lstSymAPs": [
        {
          "symIds": [
            2,
            3
          ]
        }
      ],
      "mol": {
        "atoms": [
          {
            "elSymbol": "P",
            "p3d": {
              "x": 3.3327,
              "y": 3.1661,
              "z": 5.9169
            }
          },
          {
            "elSymbol": "C",
            "p3d": {
              "x": 1.8776,
              "y": 3.4521,
              "z": 4.8835
            }
          },
          {
            "elSymbol": "C",
            "p3d": {
              "x": 1.2681,
              "y": 2.2569,
              "z": 4.7213
            }
          },
          {
            "elSymbol": "C",
            "p3d": {
              "x": 0.0419,
              "y": 1.8038,
              "z": 3.9627
            }
          },
          {
            "elSymbol": "H",
            "p3d": {
              "x": 0.2288,
              "y": 1.7787,
              "z": 2.8891
            }
          },
          {
            "elSymbol": "H",
            "p3d": {
              "x": -0.8031,
              "y": 2.4636,
              "z": 4.164
            }
          },
          {
            "elSymbol": "C",
            "p3d": {
              "x": -0.2053,
              "y": 0.3988,
              "z": 4.5209
            }
          },
          {
            "elSymbol": "H",
            "p3d": {
              "x": -0.5881,
              "y": -0.2518,
              "z": 3.7305
            }
          },
          {
            "elSymbol": "H",
            "p3d": {
              "x": -0.9454,
              "y": 0.4356,
              "z": 5.3348
            }
          },
          {
            "elSymbol": "C",
            "p3d": {
              "x": 1.1426,
              "y": -0.1318,
              "z": 5.057
            }
          },
          {
            "elSymbol": "H",
            "p3d": {
              "x": 0.9989,
              "y": -0.7298,
              "z": 5.9471
            }
          },
          {
            "elSymbol": "H",
            "p3d": {
              "x": 1.6318,
              "y": -0.7488,
              "z": 4.3049
            }
          },
          {
            "elSymbol": "C",
            "p3d": {
              "x": 1.9182,
              "y": 1.1071,
              "z": 5.3354
            }
          },
          {
            "elSymbol": "C",
            "p3d": {
              "x": 3.0763,
              "y": 1.3393,
              "z": 5.9864
            }
          }
        ],
        "bonds": [
          {
            "atomIds": [
              1,
              0
            ],
            "bo": "SINGLE"
          },
          {
            "atomIds": [
              2,
              1
            ],
            "bo": "DOUBLE"
          },
          {
            "atomIds": [
              3,
              2
            ],
            "bo": "SINGLE"
          },
          {
            "atomIds": [
              4,
              3
            ],
            "bo": "SINGLE"
          },
          {
            "atomIds": [
              5,
              3
            ],
            "bo": "SINGLE"
          },
          {
            "atomIds": [
              6,
              3
            ],
            "bo": "SINGLE"
          },
          {
            "atomIds": [
              7,
              6
            ],
            "bo": "SINGLE"
          },
          {
            "atomIds": [
              8,
              6
            ],
            "bo": "SINGLE"
          },
          {
            "atomIds": [
              9,
              6
            ],
            "bo": "SINGLE"
          },
          {
            "atomIds": [
              9,
              12
            ],
            "bo": "SINGLE"
          },
          {
            "atomIds": [
              10,
              9
            ],
            "bo": "SINGLE"
          },
          {
            "atomIds": [
              11,
              9
            ],
            "bo": "SINGLE"
          },
          {
            "atomIds": [
              12,
              2
            ],
            "bo": "SINGLE"
          },
          {
            "atomIds": [
              12,
              13
            ],
            "bo": "DOUBLE"
          },
          {
            "atomIds": [
              13,
              0
            ],
            "bo": "SINGLE"
          }
        ]
      },
      "vertexId": 114,
      "buildingBlockId": 53,
      "buildingBlockType": "FRAGMENT",
      "isRCV": false,
      "properties": {
        "ATTACHMENT_POINTS": "1#LPhospholeSubR:0:SINGLE:2.8450%3.6959%7.5989,MPhosphole:1:SINGLE:5.4116%3.8914%5.1007 2#LPhospholeSubAlpha:0:SINGLE:1.4479%4.7532%4.2328 14#LPhospholeSubAlpha:0:SINGLE:3.9785%0.2873%6.6145 "
      },
      "uniquefyingPropertyKeys": [],
      "allowedMutationTypes": [
        "DELETE",
        "EXTEND",
        "CHANGEBRANCH",
        "CHANGELINK",
        "ADDLINK",
        "DELETELINK",
        "DELETECHAIN"
      ],
      "vertexType": "MolecularFragment"
    },
    {
      "lstAPs": [
        {
          "id": 101737,
          "atomPositionNumber": 0,
          "atomPositionNumberInMol": 49,
          "apClass": {
            "rule": "Xlig",
            "subClass": 1,
            "bndTyp": "SINGLE"
          },
          "dirVec": {
            "x": -0.1753,
            "y": 0.0948,
            "z": -0.4464
          }
        }
      ],
      "lstSymAPs": [],
      "mol": {
        "atoms": [
          {
            "elSymbol": "O",
            "p3d": {
              "x": -0.3534,
              "y": 2.1044,
              "z": -0.7339
            }
          },
          {
            "elSymbol": "C",
            "p3d": {
              "x": -0.5345,
              "y": 2.7646,
              "z": 0.4801
            }
          },
          {
            "elSymbol": "H",
            "p3d": {
              "x": -0.3728,
              "y": 3.8337,
              "z": 0.2724
            }
          },
          {
            "elSymbol": "H",
            "p3d": {
              "x": 0.1816,
              "y": 2.4161,
              "z": 1.2384
            }
          },
          {
            "elSymbol": "H",
            "p3d": {
              "x": -1.553,
              "y": 2.6149,
              "z": 0.8489
            }
          }
        ],
        "bonds": [
          {
            "atomIds": [
              1,
              2
            ],
            "bo": "SINGLE"
          },
          {
            "atomIds": [
              1,
              3
            ],
            "bo": "SINGLE"
          },
          {
            "atomIds": [
              1,
              4
            ],
            "bo": "SINGLE"
          },
          {
            "atomIds": [
              0,
              1
            ],
            "bo": "SINGLE"
          }
        ]
      },
      "vertexId": 86,
      "buildingBlockId": 64,
      "buildingBlockType": "FRAGMENT",
      "isRCV": false,
      "properties": {
        "ATTACHMENT_POINTS": "1#Xlig:1:SINGLE:-0.1753%0.0948%-0.4464 "
      },
      "uniquefyingPropertyKeys": [],
      "allowedMutationTypes": [
        "DELETE",
        "EXTEND",
        "CHANGEBRANCH",
        "CHANGELINK",
        "ADDLINK",
        "DELETELINK",
        "DELETECHAIN"
      ],
      "vertexType": "MolecularFragment"
    },
    {
      "lstAPs": [
        {
          "id": 101774,
          "atomPositionNumber": 1,
          "atomPositionNumberInMol": 25,
          "apClass": {
            "rule": "SubRS",
            "subClass": 1,
            "bndTyp": "SINGLE"
          },
          "dirVec": {
            "x": 0.2985,
            "y": 0.384,
            "z": -0.6258
          }
        }
      ],
      "lstSymAPs": [],
      "mol": {
        "atoms": [
          {
            "elSymbol": "C",
            "p3d": {
              "x": -1.0244,
              "y": -0.2225,
              "z": 1.3991
            }
          },
          {
            "elSymbol": "C",
            "p3d": {
              "x": 0.3973,
              "y": -0.042,
              "z": 0.8195
            }
          },
          {
            "elSymbol": "H",
            "p3d": {
              "x": -1.5635,
              "y": -0.9908,
              "z": 0.8263
            }
          },
          {
            "elSymbol": "H",
            "p3d": {
              "x": -0.941,
              "y": -0.535,
              "z": 2.446
            }
          },
          {
            "elSymbol": "H",
            "p3d": {
              "x": -1.5586,
              "y": 0.7335,
              "z": 1.3382
            }
          },
          {
            "elSymbol": "H",
            "p3d": {
              "x": 0.9335,
              "y": 0.7221,
              "z": 1.4011
            }
          },
          {
            "elSymbol": "H",
            "p3d": {
              "x": 0.927,
              "y": -1.0102,
              "z": 0.9001
            }
          }
        ],
        "bonds": [
          {
            "atomIds": [
              0,
              1
            ],
            "bo": "SINGLE"
          },
          {
            "atomIds": [
              0,
              2
            ],
            "bo": "SINGLE"
          },
          {
            "atomIds": [
              0,
              3
            ],
            "bo": "SINGLE"
          },
          {
            "atomIds": [
              0,
              4
            ],
            "bo": "SINGLE"
          },
          {
            "atomIds": [
              1,
              5
            ],
            "bo": "SINGLE"
          },
          {
            "atomIds": [
              1,
              6
            ],
            "bo": "SINGLE"
          }
        ]
      },
      "vertexId": 76979,
      "buildingBlockId": 31,
      "buildingBlockType": "FRAGMENT",
      "isRCV": false,
      "properties": {
        "ATTACHMENT_POINTS": "2#SubRS:1:SINGLE:0.2985%0.3840%-0.6258 "
      },
      "uniquefyingPropertyKeys": [],
      "allowedMutationTypes": [
        "DELETE",
        "EXTEND",
        "CHANGEBRANCH",
        "CHANGELINK",
        "ADDLINK",
        "DELETELINK",
        "DELETECHAIN"
      ],
      "vertexType": "MolecularFragment"
    },
    {
      "lstAPs": [
        {
          "id": 101775,
          "atomPositionNumber": 0,
          "atomPositionNumberInMol": 31,
          "apClass": {
            "rule": "SubArS",
            "subClass": 1,
            "bndTyp": "SINGLE"
          },
          "dirVec": {
            "x": 0.2973,
            "y": 0.3873,
            "z": -0.6389
          }
        }
      ],
      "lstSymAPs": [],
      "mol": {
        "atoms": [
          {
            "elSymbol": "C",
            "p3d": {
              "x": 1.6995,
              "y": 0.5593,
              "z": -1.2083
            }
          },
          {
            "elSymbol": "C",
            "p3d": {
              "x": 4.2563,
              "y": 0.8754,
              "z": -2.2592
            }
          },
          {
            "elSymbol": "C",
            "p3d": {
              "x": 2.3334,
              "y": 1.79,
              "z": -1.1338
            }
          },
          {
            "elSymbol": "C",
            "p3d": {
              "x": 2.3422,
              "y": -0.5107,
              "z": -1.8125
            }
          },
          {
            "elSymbol": "C",
            "p3d": {
              "x": 3.612,
              "y": -0.3527,
              "z": -2.3321
            }
          },
          {
            "elSymbol": "C",
            "p3d": {
              "x": 3.6062,
              "y": 1.9513,
              "z": -1.6526
            }
          },
          {
            "elSymbol": "H",
            "p3d": {
              "x": 1.833,
              "y": 2.6461,
              "z": -0.6488
            }
          },
          {
            "elSymbol": "H",
            "p3d": {
              "x": 1.8361,
              "y": -1.4773,
              "z": -1.887
            }
          },
          {
            "elSymbol": "H",
            "p3d": {
              "x": 4.115,
              "y": -1.2043,
              "z": -2.8152
            }
          },
          {
            "elSymbol": "H",
            "p3d": {
              "x": 4.1097,
              "y": 2.9214,
              "z": -1.5842
            }
          },
          {
            "elSymbol": "H",
            "p3d": {
              "x": 5.2498,
              "y": 0.9926,
              "z": -2.665
            }
          }
        ],
        "bonds": [
          {
            "atomIds": [
              0,
              3
            ],
            "bo": "SINGLE"
          },
          {
            "atomIds": [
              3,
              4
            ],
            "bo": "DOUBLE"
          },
          {
            "atomIds": [
              1,
              4
            ],
            "bo": "SINGLE"
          },
          {
            "atomIds": [
              1,
              5
            ],
            "bo": "DOUBLE"
          },
          {
            "atomIds": [
              2,
              5
            ],
            "bo": "SINGLE"
          },
          {
            "atomIds": [
              0,
              2
            ],
            "bo": "DOUBLE"
          },
          {
            "atomIds": [
              4,
              8
            ],
            "bo": "SINGLE"
          },
          {
            "atomIds": [
              5,
              9
            ],
            "bo": "SINGLE"
          },
          {
            "atomIds": [
              1,
              10
            ],
            "bo": "SINGLE"
          },
          {
            "atomIds": [
              2,
              6
            ],
            "bo": "SINGLE"
          },
          {
            "atomIds": [
              3,
              7
            ],
            "bo": "SINGLE"
          }
        ]
      },
      "vertexId": 76519,
      "buildingBlockId": 35,
      "buildingBlockType": "FRAGMENT",
      "isRCV": false,
      "properties": {
        "ATTACHMENT_POINTS": "1#SubArS:1:SINGLE:0.2973%0.3873%-0.6389 "
      },
      "uniquefyingPropertyKeys": [],
      "allowedMutationTypes": [
        "DELETE",
        "EXTEND",
        "CHANGEBRANCH",
        "CHANGELINK",
        "ADDLINK",
        "DELETELINK",
        "DELETECHAIN"
      ],
      "vertexType": "MolecularFragment"
    },
    {
      "lstAPs": [
        {
          "id": 101776,
          "atomPositionNumber": 1,
          "atomPositionNumberInMol": 43,
          "apClass": {
            "rule": "SubRS",
            "subClass": 1,
            "bndTyp": "SINGLE"
          },
          "dirVec": {
            "x": 0.2985,
            "y": 0.384,
            "z": -0.6258
          }
        }
      ],
      "lstSymAPs": [],
      "mol": {
        "atoms": [
          {
            "elSymbol": "C",
            "p3d": {
              "x": -1.0244,
              "y": -0.2225,
              "z": 1.3991
            }
          },
          {
            "elSymbol": "C",
            "p3d": {
              "x": 0.3973,
              "y": -0.042,
              "z": 0.8195
            }
          },
          {
            "elSymbol": "H",
            "p3d": {
              "x": -1.5635,
              "y": -0.9908,
              "z": 0.8263
            }
          },
          {
            "elSymbol": "H",
            "p3d": {
              "x": -0.941,
              "y": -0.535,
              "z": 2.446
            }
          },
          {
            "elSymbol": "H",
            "p3d": {
              "x": -1.5586,
              "y": 0.7335,
              "z": 1.3382
            }
          },
          {
            "elSymbol": "H",
            "p3d": {
              "x": 0.9335,
              "y": 0.7221,
              "z": 1.4011
            }
          },
          {
            "elSymbol": "H",
            "p3d": {
              "x": 0.927,
              "y": -1.0102,
              "z": 0.9001
            }
          }
        ],
        "bonds": [
          {
            "atomIds": [
              0,
              1
            ],
            "bo": "SINGLE"
          },
          {
            "atomIds": [
              0,
              2
            ],
            "bo": "SINGLE"
          },
          {
            "atomIds": [
              0,
              3
            ],
            "bo": "SINGLE"
          },
          {
            "atomIds": [
              0,
              4
            ],
            "bo": "SINGLE"
          },
          {
            "atomIds": [
              1,
              5
            ],
            "bo": "SINGLE"
          },
          {
            "atomIds": [
              1,
              6
            ],
            "bo": "SINGLE"
          }
        ]
      },
      "vertexId": 76524,
      "buildingBlockId": 31,
      "buildingBlockType": "FRAGMENT",
      "isRCV": false,
      "properties": {
        "ATTACHMENT_POINTS": "2#SubRS:1:SINGLE:0.2985%0.3840%-0.6258 "
      },
      "uniquefyingPropertyKeys": [],
      "allowedMutationTypes": [
        "DELETE",
        "EXTEND",
        "CHANGEBRANCH",
        "CHANGELINK",
        "ADDLINK",
        "DELETELINK",
        "DELETECHAIN"
      ],
      "vertexType": "MolecularFragment"
    }
  ],
  "gEdges": [
    {
      "srcAPID": 101729,
      "trgAPID": 101732,
      "bondType": "SINGLE"
    },
    {
      "srcAPID": 101731,
      "trgAPID": 101734,
      "bondType": "SINGLE"
    },
    {
      "srcAPID": 101730,
      "trgAPID": 101737,
      "bondType": "SINGLE"
    },
    {
      "srcAPID": 101736,
      "trgAPID": 101774,
      "bondType": "SINGLE"
    },
    {
      "srcAPID": 101733,
      "trgAPID": 101775,
      "bondType": "SINGLE"
    },
    {
      "srcAPID": 101735,
      "trgAPID": 101776,
      "bondType": "SINGLE"
    }
  ],
  "gRings": [],
  "symVertices": [
    {
      "symIds": [
        76979,
        76524
      ]
    }
  ]
}

> <SMILES>
[Pt](C#O)(OC([H])([H])[H])([P]1(C(=C2C([H])([H])C([H])([H])C(C2=C1C(C([H])([H])[H])([H])[H])([H])[H])C(C([H])([H])[H])([H])[H])C=3C(=C(C(=C(C3[H])[H])[H])[H])[H])OC([H])([H])[H]

$$$$
