M00009145
  CDK     04222211583D

 53 55  0  0  0  0  0  0  0  0999 V2000
   -2.5768    0.3112    0.3222 Pt  0  0  0  0  0  0  0  0  0  0  0  0
   -4.5248    0.3439    0.1038 C   0  0  0  0  0  0  0  0  0  0  0  0
   -5.6574    0.3602   -0.0255 O   0  0  0  0  0  0  0  0  0  0  0  0
   -2.6989    2.2311    0.8439 C   0  0  0  0  0  0  0  0  0  0  0  0
   -2.8522    3.3412    1.1257 N   0  0  0  0  0  0  0  0  0  0  0  0
   -0.3041    0.2207    0.4939 P   0  0  0  0  0  0  0  0  0  0  0  0
    0.2004    2.3356    2.2807 C   0  0  0  0  0  0  0  0  0  0  0  0
    0.9309    2.0888    3.0892 H   0  0  0  0  0  0  0  0  0  0  0  0
   -0.8045    2.0247    2.6440 H   0  0  0  0  0  0  0  0  0  0  0  0
    0.2102    3.8576    2.0388 C   0  0  0  0  0  0  0  0  0  0  0  0
   -0.6205    4.1944    1.3917 H   0  0  0  0  0  0  0  0  0  0  0  0
    0.1948    4.4243    2.9872 H   0  0  0  0  0  0  0  0  0  0  0  0
    1.6899    3.6393    0.1775 C   0  0  0  0  0  0  0  0  0  0  0  0
    2.6399    4.0947   -0.1542 H   0  0  0  0  0  0  0  0  0  0  0  0
    0.8770    3.8987   -0.5229 H   0  0  0  0  0  0  0  0  0  0  0  0
    1.8159    2.1200    0.3927 C   0  0  0  0  0  0  0  0  0  0  0  0
    2.0216    1.6125   -0.5797 H   0  0  0  0  0  0  0  0  0  0  0  0
    2.6910    1.9227    1.0596 H   0  0  0  0  0  0  0  0  0  0  0  0
    0.5911    1.5985    1.0493 N   0  0  0  0  0  0  0  0  0  0  0  0
    1.4571    4.2782    1.4452 O   0  0  0  0  0  0  0  0  0  0  0  0
    1.5578   -1.3953    1.8675 C   0  0  0  0  0  0  0  0  0  0  0  0
    1.7867   -1.1947    2.9426 H   0  0  0  0  0  0  0  0  0  0  0  0
    2.2705   -0.7901    1.2717 H   0  0  0  0  0  0  0  0  0  0  0  0
    1.7419   -2.8985    1.5770 C   0  0  0  0  0  0  0  0  0  0  0  0
    1.6151   -3.1239    0.4993 H   0  0  0  0  0  0  0  0  0  0  0  0
    2.7117   -3.2833    1.9383 H   0  0  0  0  0  0  0  0  0  0  0  0
   -0.5772   -3.3346    2.0593 C   0  0  0  0  0  0  0  0  0  0  0  0
   -1.1273   -4.0036    2.7448 H   0  0  0  0  0  0  0  0  0  0  0  0
   -0.8072   -3.5984    1.0110 H   0  0  0  0  0  0  0  0  0  0  0  0
   -0.8325   -1.8452    2.3623 C   0  0  0  0  0  0  0  0  0  0  0  0
   -1.8860   -1.5678    2.1278 H   0  0  0  0  0  0  0  0  0  0  0  0
   -0.6838   -1.6582    3.4536 H   0  0  0  0  0  0  0  0  0  0  0  0
    0.1454   -1.0282    1.6005 N   0  0  0  0  0  0  0  0  0  0  0  0
    0.7990   -3.6721    2.3418 O   0  0  0  0  0  0  0  0  0  0  0  0
    0.3473   -0.1011   -1.2617 C   0  0  0  0  0  0  0  0  0  0  0  0
    1.0502   -1.7516   -3.0139 C   0  0  0  0  0  0  0  0  0  0  0  0
   -0.2138    0.3482   -3.6718 C   0  0  0  0  0  0  0  0  0  0  0  0
    0.0558   -1.1262   -4.0019 C   0  0  0  0  0  0  0  0  0  0  0  0
   -0.6858    0.5190   -2.2164 C   0  0  0  0  0  0  0  0  0  0  0  0
    0.5669   -1.5862   -1.5625 C   0  0  0  0  0  0  0  0  0  0  0  0
    2.0483   -1.2924   -3.1400 H   0  0  0  0  0  0  0  0  0  0  0  0
    0.7003    0.9467   -3.8459 H   0  0  0  0  0  0  0  0  0  0  0  0
   -0.8962   -1.6942   -3.9797 H   0  0  0  0  0  0  0  0  0  0  0  0
   -1.6844    0.0292   -2.1099 H   0  0  0  0  0  0  0  0  0  0  0  0
   -0.3686   -2.1736   -1.4364 H   0  0  0  0  0  0  0  0  0  0  0  0
    1.3302    0.4318   -1.3923 H   0  0  0  0  0  0  0  0  0  0  0  0
    1.1766   -2.8278   -3.2415 H   0  0  0  0  0  0  0  0  0  0  0  0
   -0.9792    0.7537   -4.3610 H   0  0  0  0  0  0  0  0  0  0  0  0
    0.4406   -1.2177   -5.0348 H   0  0  0  0  0  0  0  0  0  0  0  0
   -0.8420    1.5997   -2.0128 H   0  0  0  0  0  0  0  0  0  0  0  0
    1.3050   -2.0455   -0.8715 H   0  0  0  0  0  0  0  0  0  0  0  0
   -2.6293   -1.6059   -0.2392 C   0  0  0  0  0  0  0  0  0  0  0  0
   -2.7166   -2.7104   -0.5678 N   0  0  0  0  0  0  0  0  0  0  0  0
  2  3  3  0  0  0  0
  1  2  1  0  0  0  0
  4  5  3  0  0  0  0
  1  4  1  0  0  0  0
  1  6  1  0  0  0  0
  7  8  1  0  0  0  0
  9  7  1  0  0  0  0
 10  7  1  0  0  0  0
 11 10  1  0  0  0  0
 12 10  1  0  0  0  0
 13 14  1  0  0  0  0
 15 13  1  0  0  0  0
 16 13  1  0  0  0  0
 17 16  1  0  0  0  0
 18 16  1  0  0  0  0
 19  7  1  0  0  0  0
 20 10  1  0  0  0  0
 13 20  1  0  0  0  0
 16 19  1  0  0  0  0
  6 19  1  0  0  0  0
 21 22  1  0  0  0  0
 23 21  1  0  0  0  0
 24 21  1  0  0  0  0
 25 24  1  0  0  0  0
 26 24  1  0  0  0  0
 27 28  1  0  0  0  0
 29 27  1  0  0  0  0
 30 27  1  0  0  0  0
 31 30  1  0  0  0  0
 32 30  1  0  0  0  0
 33 21  1  0  0  0  0
 34 24  1  0  0  0  0
 27 34  1  0  0  0  0
 30 33  1  0  0  0  0
  6 33  1  0  0  0  0
 35 46  1  0  0  0  0
 35 39  1  0  0  0  0
 35 40  1  0  0  0  0
 36 41  1  0  0  0  0
 36 47  1  0  0  0  0
 36 38  1  0  0  0  0
 36 40  1  0  0  0  0
 37 42  1  0  0  0  0
 37 48  1  0  0  0  0
 37 39  1  0  0  0  0
 37 38  1  0  0  0  0
 38 43  1  0  0  0  0
 38 49  1  0  0  0  0
 39 44  1  0  0  0  0
 39 50  1  0  0  0  0
 40 45  1  0  0  0  0
 40 51  1  0  0  0  0
  6 35  1  0  0  0  0
 52 53  3  0  0  0  0
  1 52  1  0  0  0  0
M  END
> <PM6_ENERGY>
-318.920

> <UID>
AWJAGEWEDWNJMG-DGDMJYOZNA-N

> <FITNESS>
1.14007

> <GCODE>
10090

> <GraphENC>
10090 72_1_0,81_66_1,100_3_1,87_66_1,205815_9_1,205495_9_1,205505_35_1, 72_0_81_0_SINGLE_Xlig:0_Xlig:1,72_2_100_3_SINGLE_scaff:0_MBisAminoPhosphine:1,72_1_87_0_SINGLE_Xlig:0_Xlig:1,100_1_205815_0_SINGLE_LBisAminoPhosphineN:0_LAminoPhosphineCycloN:1,100_0_205495_0_SINGLE_LBisAminoPhosphineN:0_LAminoPhosphineCycloN:1,100_2_205505_0_SINGLE_LBisAminoPhosphineSubR:0_SubRM:1, SymmetricSet [symIds=[205815, 205495]] 

> <GraphJson>
{
  "graphId": 10090,
  "gVertices": [
    {
      "lstAPs": [
        {
          "id": 268739,
          "atomPositionNumber": 0,
          "atomPositionNumberInMol": 0,
          "apClass": {
            "rule": "Xlig",
            "subClass": 0,
            "bndTyp": "SINGLE"
          },
          "dirVec": {
            "x": -2.3339,
            "y": -0.0087,
            "z": 0.8172
          }
        },
        {
          "id": 268740,
          "atomPositionNumber": 0,
          "atomPositionNumberInMol": 0,
          "apClass": {
            "rule": "Xlig",
            "subClass": 0,
            "bndTyp": "SINGLE"
          },
          "dirVec": {
            "x": 2.336,
            "y": -5.0E-4,
            "z": 0.829
          }
        },
        {
          "id": 268741,
          "atomPositionNumber": 0,
          "atomPositionNumberInMol": 0,
          "apClass": {
            "rule": "scaff",
            "subClass": 0,
            "bndTyp": "SINGLE"
          },
          "dirVec": {
            "x": -0.0095,
            "y": 0.0046,
            "z": -1.7113
          }
        }
      ],
      "lstSymAPs": [
        {
          "symIds": [
            0,
            1
          ]
        }
      ],
      "mol": {
        "atoms": [
          {
            "elSymbol": "Pt",
            "p3d": {
              "x": -0.0098,
              "y": 0.0049,
              "z": 0.6289
            }
          },
          {
            "elSymbol": "C",
            "p3d": {
              "x": -6.0E-4,
              "y": 0.0016,
              "z": 2.5609
            }
          },
          {
            "elSymbol": "O",
            "p3d": {
              "x": 0.0025,
              "y": -0.0041,
              "z": 3.6974
            }
          },
          {
            "elSymbol": "Du",
            "p3d": {
              "x": -0.007,
              "y": 1.0013,
              "z": 0.6372
            }
          },
          {
            "elSymbol": "Du",
            "p3d": {
              "x": -0.0014,
              "y": 0.9902,
              "z": 2.5698
            }
          }
        ],
        "bonds": [
          {
            "atomIds": [
              1,
              2
            ],
            "bo": "TRIPLE"
          },
          {
            "atomIds": [
              0,
              1
            ],
            "bo": "SINGLE"
          },
          {
            "atomIds": [
              3,
              0
            ],
            "bo": "SINGLE"
          },
          {
            "atomIds": [
              4,
              1
            ],
            "bo": "SINGLE"
          }
        ]
      },
      "vertexId": 72,
      "buildingBlockId": 0,
      "buildingBlockType": "SCAFFOLD",
      "isRCV": false,
      "properties": {
        "ATTACHMENT_POINTS": "1#Xlig:0:SINGLE:-2.3339%-0.0087%0.8172,Xlig:0:SINGLE:2.3360%-0.0005%0.8290,scaff:0:SINGLE:-0.0095%0.0046%-1.7113 "
      },
      "uniquefyingPropertyKeys": [],
      "allowedMutationTypes": [
        "DELETE",
        "EXTEND",
        "CHANGEBRANCH",
        "CHANGELINK",
        "ADDLINK",
        "DELETELINK",
        "DELETECHAIN"
      ],
      "vertexType": "MolecularFragment"
    },
    {
      "lstAPs": [
        {
          "id": 268742,
          "atomPositionNumber": 0,
          "atomPositionNumberInMol": 5,
          "apClass": {
            "rule": "Xlig",
            "subClass": 1,
            "bndTyp": "SINGLE"
          },
          "dirVec": {
            "x": 0.0192,
            "y": -0.0048,
            "z": -0.5645
          }
        }
      ],
      "lstSymAPs": [],
      "mol": {
        "atoms": [
          {
            "elSymbol": "C",
            "p3d": {
              "x": -1.967,
              "y": -0.0075,
              "z": -0.4937
            }
          },
          {
            "elSymbol": "N",
            "p3d": {
              "x": -3.1263,
              "y": -0.0054,
              "z": -0.4354
            }
          },
          {
            "elSymbol": "Du",
            "p3d": {
              "x": -1.9744,
              "y": 0.9926,
              "z": -0.5036
            }
          }
        ],
        "bonds": [
          {
            "atomIds": [
              0,
              1
            ],
            "bo": "TRIPLE"
          },
          {
            "atomIds": [
              2,
              0
            ],
            "bo": "SINGLE"
          }
        ]
      },
      "vertexId": 81,
      "buildingBlockId": 65,
      "buildingBlockType": "FRAGMENT",
      "isRCV": false,
      "properties": {
        "ATTACHMENT_POINTS": "1#Xlig:1:SINGLE:0.0192%-0.0048%-0.5645 "
      },
      "uniquefyingPropertyKeys": [],
      "allowedMutationTypes": [
        "DELETE",
        "EXTEND",
        "CHANGEBRANCH",
        "CHANGELINK",
        "ADDLINK",
        "DELETELINK",
        "DELETECHAIN"
      ],
      "vertexType": "MolecularFragment"
    },
    {
      "lstAPs": [
        {
          "id": 268743,
          "atomPositionNumber": 0,
          "atomPositionNumberInMol": 8,
          "apClass": {
            "rule": "LBisAminoPhosphineN",
            "subClass": 0,
            "bndTyp": "SINGLE"
          },
          "dirVec": {
            "x": -1.9272,
            "y": -0.2351,
            "z": 5.6045
          }
        },
        {
          "id": 268744,
          "atomPositionNumber": 0,
          "atomPositionNumberInMol": 8,
          "apClass": {
            "rule": "LBisAminoPhosphineN",
            "subClass": 0,
            "bndTyp": "SINGLE"
          },
          "dirVec": {
            "x": -1.4136,
            "y": -2.2231,
            "z": 3.8983
          }
        },
        {
          "id": 268745,
          "atomPositionNumber": 0,
          "atomPositionNumberInMol": 8,
          "apClass": {
            "rule": "LBisAminoPhosphineSubR",
            "subClass": 0,
            "bndTyp": "SINGLE"
          },
          "dirVec": {
            "x": -3.1852,
            "y": -0.3594,
            "z": 3.1924
          }
        },
        {
          "id": 268746,
          "atomPositionNumber": 0,
          "atomPositionNumberInMol": 8,
          "apClass": {
            "rule": "MBisAminoPhosphine",
            "subClass": 1,
            "bndTyp": "SINGLE"
          },
          "dirVec": {
            "x": 0.1796,
            "y": 0.6567,
            "z": 3.3484
          }
        }
      ],
      "lstSymAPs": [
        {
          "symIds": [
            0,
            1
          ]
        }
      ],
      "mol": {
        "atoms": [
          {
            "elSymbol": "P",
            "p3d": {
              "x": -1.6038,
              "y": -0.5663,
              "z": 4.0324
            }
          }
        ],
        "bonds": []
      },
      "vertexId": 100,
      "buildingBlockId": 2,
      "buildingBlockType": "FRAGMENT",
      "isRCV": false,
      "properties": {
        "ATTACHMENT_POINTS": "1#LBisAminoPhosphineN:0:SINGLE:-1.9272%-0.2351%5.6045,LBisAminoPhosphineN:0:SINGLE:-1.4136%-2.2231%3.8983,LBisAminoPhosphineSubR:0:SINGLE:-3.1852%-0.3594%3.1924,MBisAminoPhosphine:1:SINGLE:0.1796%0.6567%3.3484 "
      },
      "uniquefyingPropertyKeys": [],
      "allowedMutationTypes": [
        "DELETE",
        "EXTEND",
        "CHANGEBRANCH",
        "CHANGELINK",
        "ADDLINK",
        "DELETELINK",
        "DELETECHAIN"
      ],
      "vertexType": "MolecularFragment"
    },
    {
      "lstAPs": [
        {
          "id": 268747,
          "atomPositionNumber": 0,
          "atomPositionNumberInMol": 54,
          "apClass": {
            "rule": "Xlig",
            "subClass": 1,
            "bndTyp": "SINGLE"
          },
          "dirVec": {
            "x": 0.0192,
            "y": -0.0048,
            "z": -0.5645
          }
        }
      ],
      "lstSymAPs": [],
      "mol": {
        "atoms": [
          {
            "elSymbol": "C",
            "p3d": {
              "x": -1.967,
              "y": -0.0075,
              "z": -0.4937
            }
          },
          {
            "elSymbol": "N",
            "p3d": {
              "x": -3.1263,
              "y": -0.0054,
              "z": -0.4354
            }
          },
          {
            "elSymbol": "Du",
            "p3d": {
              "x": -1.9744,
              "y": 0.9926,
              "z": -0.5036
            }
          }
        ],
        "bonds": [
          {
            "atomIds": [
              0,
              1
            ],
            "bo": "TRIPLE"
          },
          {
            "atomIds": [
              2,
              0
            ],
            "bo": "SINGLE"
          }
        ]
      },
      "vertexId": 87,
      "buildingBlockId": 65,
      "buildingBlockType": "FRAGMENT",
      "isRCV": false,
      "properties": {
        "ATTACHMENT_POINTS": "1#Xlig:1:SINGLE:0.0192%-0.0048%-0.5645 "
      },
      "uniquefyingPropertyKeys": [],
      "allowedMutationTypes": [
        "DELETE",
        "EXTEND",
        "CHANGEBRANCH",
        "CHANGELINK",
        "ADDLINK",
        "DELETELINK",
        "DELETECHAIN"
      ],
      "vertexType": "MolecularFragment"
    },
    {
      "lstAPs": [
        {
          "id": 268784,
          "atomPositionNumber": 12,
          "atomPositionNumberInMol": 21,
          "apClass": {
            "rule": "LAminoPhosphineCycloN",
            "subClass": 1,
            "bndTyp": "SINGLE"
          },
          "dirVec": {
            "x": 3.8318,
            "y": 4.4705,
            "z": 2.8673
          }
        }
      ],
      "lstSymAPs": [],
      "mol": {
        "atoms": [
          {
            "elSymbol": "C",
            "p3d": {
              "x": 1.6447,
              "y": 5.1042,
              "z": 4.3264
            }
          },
          {
            "elSymbol": "H",
            "p3d": {
              "x": 1.9147,
              "y": 6.0213,
              "z": 4.8479
            }
          },
          {
            "elSymbol": "H",
            "p3d": {
              "x": 1.9986,
              "y": 4.2552,
              "z": 4.9127
            }
          },
          {
            "elSymbol": "C",
            "p3d": {
              "x": 0.1515,
              "y": 5.0176,
              "z": 4.1739
            }
          },
          {
            "elSymbol": "H",
            "p3d": {
              "x": -0.1334,
              "y": 4.0848,
              "z": 3.6797
            }
          },
          {
            "elSymbol": "H",
            "p3d": {
              "x": -0.3255,
              "y": 5.0447,
              "z": 5.1478
            }
          },
          {
            "elSymbol": "C",
            "p3d": {
              "x": 0.2487,
              "y": 6.072,
              "z": 2.1008
            }
          },
          {
            "elSymbol": "H",
            "p3d": {
              "x": -0.1423,
              "y": 6.9098,
              "z": 1.5084
            }
          },
          {
            "elSymbol": "H",
            "p3d": {
              "x": -0.0446,
              "y": 5.157,
              "z": 1.5955
            }
          },
          {
            "elSymbol": "C",
            "p3d": {
              "x": 1.7465,
              "y": 6.1786,
              "z": 2.1683
            }
          },
          {
            "elSymbol": "H",
            "p3d": {
              "x": 2.17,
              "y": 6.1296,
              "z": 1.1666
            }
          },
          {
            "elSymbol": "H",
            "p3d": {
              "x": 2.031,
              "y": 7.1422,
              "z": 2.6107
            }
          },
          {
            "elSymbol": "N",
            "p3d": {
              "x": 2.2792,
              "y": 5.0823,
              "z": 2.9873
            }
          },
          {
            "elSymbol": "O",
            "p3d": {
              "x": -0.34,
              "y": 6.1108,
              "z": 3.3895
            }
          }
        ],
        "bonds": [
          {
            "atomIds": [
              0,
              1
            ],
            "bo": "SINGLE"
          },
          {
            "atomIds": [
              2,
              0
            ],
            "bo": "SINGLE"
          },
          {
            "atomIds": [
              3,
              0
            ],
            "bo": "SINGLE"
          },
          {
            "atomIds": [
              4,
              3
            ],
            "bo": "SINGLE"
          },
          {
            "atomIds": [
              5,
              3
            ],
            "bo": "SINGLE"
          },
          {
            "atomIds": [
              6,
              7
            ],
            "bo": "SINGLE"
          },
          {
            "atomIds": [
              8,
              6
            ],
            "bo": "SINGLE"
          },
          {
            "atomIds": [
              9,
              6
            ],
            "bo": "SINGLE"
          },
          {
            "atomIds": [
              10,
              9
            ],
            "bo": "SINGLE"
          },
          {
            "atomIds": [
              11,
              9
            ],
            "bo": "SINGLE"
          },
          {
            "atomIds": [
              12,
              0
            ],
            "bo": "SINGLE"
          },
          {
            "atomIds": [
              13,
              3
            ],
            "bo": "SINGLE"
          },
          {
            "atomIds": [
              6,
              13
            ],
            "bo": "SINGLE"
          },
          {
            "atomIds": [
              9,
              12
            ],
            "bo": "SINGLE"
          }
        ]
      },
      "vertexId": 205815,
      "buildingBlockId": 8,
      "buildingBlockType": "FRAGMENT",
      "isRCV": false,
      "properties": {
        "ATTACHMENT_POINTS": "13#LAminoPhosphineCycloN:1:SINGLE:3.8318%4.4705%2.8673 "
      },
      "uniquefyingPropertyKeys": [],
      "allowedMutationTypes": [
        "DELETE",
        "EXTEND",
        "CHANGEBRANCH",
        "CHANGELINK",
        "ADDLINK",
        "DELETELINK",
        "DELETECHAIN"
      ],
      "vertexType": "MolecularFragment"
    },
    {
      "lstAPs": [
        {
          "id": 268785,
          "atomPositionNumber": 12,
          "atomPositionNumberInMol": 35,
          "apClass": {
            "rule": "LAminoPhosphineCycloN",
            "subClass": 1,
            "bndTyp": "SINGLE"
          },
          "dirVec": {
            "x": 3.8318,
            "y": 4.4705,
            "z": 2.8673
          }
        }
      ],
      "lstSymAPs": [],
      "mol": {
        "atoms": [
          {
            "elSymbol": "C",
            "p3d": {
              "x": 1.6447,
              "y": 5.1042,
              "z": 4.3264
            }
          },
          {
            "elSymbol": "H",
            "p3d": {
              "x": 1.9147,
              "y": 6.0213,
              "z": 4.8479
            }
          },
          {
            "elSymbol": "H",
            "p3d": {
              "x": 1.9986,
              "y": 4.2552,
              "z": 4.9127
            }
          },
          {
            "elSymbol": "C",
            "p3d": {
              "x": 0.1515,
              "y": 5.0176,
              "z": 4.1739
            }
          },
          {
            "elSymbol": "H",
            "p3d": {
              "x": -0.1334,
              "y": 4.0848,
              "z": 3.6797
            }
          },
          {
            "elSymbol": "H",
            "p3d": {
              "x": -0.3255,
              "y": 5.0447,
              "z": 5.1478
            }
          },
          {
            "elSymbol": "C",
            "p3d": {
              "x": 0.2487,
              "y": 6.072,
              "z": 2.1008
            }
          },
          {
            "elSymbol": "H",
            "p3d": {
              "x": -0.1423,
              "y": 6.9098,
              "z": 1.5084
            }
          },
          {
            "elSymbol": "H",
            "p3d": {
              "x": -0.0446,
              "y": 5.157,
              "z": 1.5955
            }
          },
          {
            "elSymbol": "C",
            "p3d": {
              "x": 1.7465,
              "y": 6.1786,
              "z": 2.1683
            }
          },
          {
            "elSymbol": "H",
            "p3d": {
              "x": 2.17,
              "y": 6.1296,
              "z": 1.1666
            }
          },
          {
            "elSymbol": "H",
            "p3d": {
              "x": 2.031,
              "y": 7.1422,
              "z": 2.6107
            }
          },
          {
            "elSymbol": "N",
            "p3d": {
              "x": 2.2792,
              "y": 5.0823,
              "z": 2.9873
            }
          },
          {
            "elSymbol": "O",
            "p3d": {
              "x": -0.34,
              "y": 6.1108,
              "z": 3.3895
            }
          }
        ],
        "bonds": [
          {
            "atomIds": [
              0,
              1
            ],
            "bo": "SINGLE"
          },
          {
            "atomIds": [
              2,
              0
            ],
            "bo": "SINGLE"
          },
          {
            "atomIds": [
              3,
              0
            ],
            "bo": "SINGLE"
          },
          {
            "atomIds": [
              4,
              3
            ],
            "bo": "SINGLE"
          },
          {
            "atomIds": [
              5,
              3
            ],
            "bo": "SINGLE"
          },
          {
            "atomIds": [
              6,
              7
            ],
            "bo": "SINGLE"
          },
          {
            "atomIds": [
              8,
              6
            ],
            "bo": "SINGLE"
          },
          {
            "atomIds": [
              9,
              6
            ],
            "bo": "SINGLE"
          },
          {
            "atomIds": [
              10,
              9
            ],
            "bo": "SINGLE"
          },
          {
            "atomIds": [
              11,
              9
            ],
            "bo": "SINGLE"
          },
          {
            "atomIds": [
              12,
              0
            ],
            "bo": "SINGLE"
          },
          {
            "atomIds": [
              13,
              3
            ],
            "bo": "SINGLE"
          },
          {
            "atomIds": [
              6,
              13
            ],
            "bo": "SINGLE"
          },
          {
            "atomIds": [
              9,
              12
            ],
            "bo": "SINGLE"
          }
        ]
      },
      "vertexId": 205495,
      "buildingBlockId": 8,
      "buildingBlockType": "FRAGMENT",
      "isRCV": false,
      "properties": {
        "ATTACHMENT_POINTS": "13#LAminoPhosphineCycloN:1:SINGLE:3.8318%4.4705%2.8673 "
      },
      "uniquefyingPropertyKeys": [],
      "allowedMutationTypes": [
        "DELETE",
        "EXTEND",
        "CHANGEBRANCH",
        "CHANGELINK",
        "ADDLINK",
        "DELETELINK",
        "DELETECHAIN"
      ],
      "vertexType": "MolecularFragment"
    },
    {
      "lstAPs": [
        {
          "id": 268786,
          "atomPositionNumber": 0,
          "atomPositionNumberInMol": 37,
          "apClass": {
            "rule": "SubRM",
            "subClass": 1,
            "bndTyp": "SINGLE"
          },
          "dirVec": {
            "x": 0.2917,
            "y": 0.3929,
            "z": -0.6365
          }
        }
      ],
      "lstSymAPs": [],
      "mol": {
        "atoms": [
          {
            "elSymbol": "C",
            "p3d": {
              "x": 1.7002,
              "y": 0.56,
              "z": -1.2045
            }
          },
          {
            "elSymbol": "C",
            "p3d": {
              "x": 3.564,
              "y": -0.7339,
              "z": -2.2652
            }
          },
          {
            "elSymbol": "C",
            "p3d": {
              "x": 2.9237,
              "y": 1.5034,
              "z": -3.1926
            }
          },
          {
            "elSymbol": "C",
            "p3d": {
              "x": 3.4145,
              "y": 0.0994,
              "z": -3.5498
            }
          },
          {
            "elSymbol": "C",
            "p3d": {
              "x": 1.5576,
              "y": 1.3879,
              "z": -2.5024
            }
          },
          {
            "elSymbol": "C",
            "p3d": {
              "x": 2.203,
              "y": -0.843,
              "z": -1.5702
            }
          },
          {
            "elSymbol": "H",
            "p3d": {
              "x": 4.3384,
              "y": -0.3241,
              "z": -1.6106
            }
          },
          {
            "elSymbol": "H",
            "p3d": {
              "x": 3.6361,
              "y": 2.0524,
              "z": -2.5991
            }
          },
          {
            "elSymbol": "H",
            "p3d": {
              "x": 2.7828,
              "y": -0.3911,
              "z": -4.2916
            }
          },
          {
            "elSymbol": "H",
            "p3d": {
              "x": 0.7737,
              "y": 0.9833,
              "z": -3.15
            }
          },
          {
            "elSymbol": "H",
            "p3d": {
              "x": 1.4815,
              "y": -1.3988,
              "z": -2.1783
            }
          },
          {
            "elSymbol": "H",
            "p3d": {
              "x": 2.3445,
              "y": 1.0609,
              "z": -0.4835
            }
          },
          {
            "elSymbol": "H",
            "p3d": {
              "x": 3.8429,
              "y": -1.7623,
              "z": -2.577
            }
          },
          {
            "elSymbol": "H",
            "p3d": {
              "x": 2.7428,
              "y": 2.0124,
              "z": -4.146
            }
          },
          {
            "elSymbol": "H",
            "p3d": {
              "x": 4.4291,
              "y": 0.2183,
              "z": -3.9628
            }
          },
          {
            "elSymbol": "H",
            "p3d": {
              "x": 1.2819,
              "y": 2.4034,
              "z": -2.1821
            }
          },
          {
            "elSymbol": "H",
            "p3d": {
              "x": 2.3734,
              "y": -1.3662,
              "z": -0.6149
            }
          }
        ],
        "bonds": [
          {
            "atomIds": [
              0,
              11
            ],
            "bo": "SINGLE"
          },
          {
            "atomIds": [
              0,
              4
            ],
            "bo": "SINGLE"
          },
          {
            "atomIds": [
              0,
              5
            ],
            "bo": "SINGLE"
          },
          {
            "atomIds": [
              1,
              6
            ],
            "bo": "SINGLE"
          },
          {
            "atomIds": [
              1,
              12
            ],
            "bo": "SINGLE"
          },
          {
            "atomIds": [
              1,
              3
            ],
            "bo": "SINGLE"
          },
          {
            "atomIds": [
              1,
              5
            ],
            "bo": "SINGLE"
          },
          {
            "atomIds": [
              2,
              7
            ],
            "bo": "SINGLE"
          },
          {
            "atomIds": [
              2,
              13
            ],
            "bo": "SINGLE"
          },
          {
            "atomIds": [
              2,
              4
            ],
            "bo": "SINGLE"
          },
          {
            "atomIds": [
              2,
              3
            ],
            "bo": "SINGLE"
          },
          {
            "atomIds": [
              3,
              8
            ],
            "bo": "SINGLE"
          },
          {
            "atomIds": [
              3,
              14
            ],
            "bo": "SINGLE"
          },
          {
            "atomIds": [
              4,
              9
            ],
            "bo": "SINGLE"
          },
          {
            "atomIds": [
              4,
              15
            ],
            "bo": "SINGLE"
          },
          {
            "atomIds": [
              5,
              10
            ],
            "bo": "SINGLE"
          },
          {
            "atomIds": [
              5,
              16
            ],
            "bo": "SINGLE"
          }
        ]
      },
      "vertexId": 205505,
      "buildingBlockId": 34,
      "buildingBlockType": "FRAGMENT",
      "isRCV": false,
      "properties": {
        "ATTACHMENT_POINTS": "1#SubRM:1:SINGLE:0.2917%0.3929%-0.6365 "
      },
      "uniquefyingPropertyKeys": [],
      "allowedMutationTypes": [
        "DELETE",
        "EXTEND",
        "CHANGEBRANCH",
        "CHANGELINK",
        "ADDLINK",
        "DELETELINK",
        "DELETECHAIN"
      ],
      "vertexType": "MolecularFragment"
    }
  ],
  "gEdges": [
    {
      "srcAPID": 268739,
      "trgAPID": 268742,
      "bondType": "SINGLE"
    },
    {
      "srcAPID": 268741,
      "trgAPID": 268746,
      "bondType": "SINGLE"
    },
    {
      "srcAPID": 268740,
      "trgAPID": 268747,
      "bondType": "SINGLE"
    },
    {
      "srcAPID": 268744,
      "trgAPID": 268784,
      "bondType": "SINGLE"
    },
    {
      "srcAPID": 268743,
      "trgAPID": 268785,
      "bondType": "SINGLE"
    },
    {
      "srcAPID": 268745,
      "trgAPID": 268786,
      "bondType": "SINGLE"
    }
  ],
  "gRings": [],
  "symVertices": [
    {
      "symIds": [
        205815,
        205495
      ]
    }
  ]
}

> <SMILES>
[Pt](C#O)(C#N)([P](N1C([H])([H])C([H])([H])OC([H])([H])C1([H])[H])(N2C([H])([H])C([H])([H])OC([H])([H])C2([H])[H])C3([H])C(C([H])([H])C(C([H])([H])C3([H])[H])([H])[H])([H])[H])C#N

$$$$
