M00010733
  CDK     04222212313D

 46 48  0  0  0  0  0  0  0  0999 V2000
   -2.6340    0.2429   -0.0029 Pt  0  0  0  0  0  0  0  0  0  0  0  0
   -4.5753    0.4698   -0.0234 C   0  0  0  0  0  0  0  0  0  0  0  0
   -5.7083    0.6038   -0.0205 O   0  0  0  0  0  0  0  0  0  0  0  0
   -2.3372    2.1985   -0.0886 C   0  0  0  0  0  0  0  0  0  0  0  0
   -2.2010    3.3441   -0.1574 N   0  0  0  0  0  0  0  0  0  0  0  0
   -0.3415    0.1208    0.0367 P   0  0  0  0  0  0  0  0  0  0  0  0
    0.3377   -1.5986    0.0440 C   0  0  0  0  0  0  0  0  0  0  0  0
    1.3644   -4.1908   -0.0238 C   0  0  0  0  0  0  0  0  0  0  0  0
    0.1054   -2.4533    1.1330 C   0  0  0  0  0  0  0  0  0  0  0  0
    1.0713   -2.0298   -1.0671 C   0  0  0  0  0  0  0  0  0  0  0  0
    1.5884   -3.3248   -1.1022 C   0  0  0  0  0  0  0  0  0  0  0  0
    0.6352   -3.7599    1.0811 C   0  0  0  0  0  0  0  0  0  0  0  0
    1.2569   -1.3763   -1.9250 H   0  0  0  0  0  0  0  0  0  0  0  0
    2.1569   -3.6645   -1.9652 H   0  0  0  0  0  0  0  0  0  0  0  0
    0.4598   -4.4431    1.9114 H   0  0  0  0  0  0  0  0  0  0  0  0
    1.7610   -5.2065   -0.0524 H   0  0  0  0  0  0  0  0  0  0  0  0
   -0.6572   -2.0492    2.3518 C   0  0  0  0  0  0  0  0  0  0  0  0
   -1.6654   -1.6635    2.1149 H   0  0  0  0  0  0  0  0  0  0  0  0
   -0.1268   -1.2862    2.9413 H   0  0  0  0  0  0  0  0  0  0  0  0
   -0.8360   -2.8959    3.0319 H   0  0  0  0  0  0  0  0  0  0  0  0
    0.2864    0.9493   -1.4892 C   0  0  0  0  0  0  0  0  0  0  0  0
    1.2378    2.1704   -3.8055 C   0  0  0  0  0  0  0  0  0  0  0  0
   -0.3900    0.7335   -2.7019 C   0  0  0  0  0  0  0  0  0  0  0  0
    1.4039    1.7851   -1.4236 C   0  0  0  0  0  0  0  0  0  0  0  0
    1.8848    2.3944   -2.5849 C   0  0  0  0  0  0  0  0  0  0  0  0
    0.1122    1.3493   -3.8645 C   0  0  0  0  0  0  0  0  0  0  0  0
    1.9153    1.9936   -0.4801 H   0  0  0  0  0  0  0  0  0  0  0  0
    2.7520    3.0505   -2.5388 H   0  0  0  0  0  0  0  0  0  0  0  0
   -0.3923    1.1950   -4.8178 H   0  0  0  0  0  0  0  0  0  0  0  0
    1.6109    2.6467   -4.7134 H   0  0  0  0  0  0  0  0  0  0  0  0
   -1.6323   -0.0918   -2.8131 C   0  0  0  0  0  0  0  0  0  0  0  0
   -2.5151    0.4663   -2.4332 H   0  0  0  0  0  0  0  0  0  0  0  0
   -1.5939   -1.0624   -2.2850 H   0  0  0  0  0  0  0  0  0  0  0  0
   -1.8708   -0.3481   -3.8573 H   0  0  0  0  0  0  0  0  0  0  0  0
    0.3684    0.9318    1.5409 C   0  0  0  0  0  0  0  0  0  0  0  0
    1.4265    2.1250    3.8211 C   0  0  0  0  0  0  0  0  0  0  0  0
    1.7338    0.8022    1.8126 C   0  0  0  0  0  0  0  0  0  0  0  0
   -0.4787    1.6253    2.4053 C   0  0  0  0  0  0  0  0  0  0  0  0
    0.0603    2.2296    3.5494 C   0  0  0  0  0  0  0  0  0  0  0  0
    2.2623    1.4068    2.9571 C   0  0  0  0  0  0  0  0  0  0  0  0
    2.4018    0.2322    1.1621 H   0  0  0  0  0  0  0  0  0  0  0  0
   -1.5566    1.7137    2.2225 H   0  0  0  0  0  0  0  0  0  0  0  0
   -0.5908    2.7862    4.2239 H   0  0  0  0  0  0  0  0  0  0  0  0
    3.3252    1.3182    3.1782 H   0  0  0  0  0  0  0  0  0  0  0  0
    1.8437    2.6012    4.7091 H   0  0  0  0  0  0  0  0  0  0  0  0
   -3.2593   -2.0412    0.0082 Cl  0  0  0  0  0  0  0  0  0  0  0  0
  2  3  3  0  0  0  0
  1  2  1  0  0  0  0
  4  5  3  0  0  0  0
  1  4  1  0  0  0  0
  1  6  1  0  0  0  0
  7 10  1  0  0  0  0
 10 11  2  0  0  0  0
  8 11  1  0  0  0  0
  8 12  2  0  0  0  0
  9 12  1  0  0  0  0
  7  9  2  0  0  0  0
 11 14  1  0  0  0  0
 12 15  1  0  0  0  0
  8 16  1  0  0  0  0
 10 13  1  0  0  0  0
 17 18  1  0  0  0  0
 17 19  1  0  0  0  0
 17 20  1  0  0  0  0
  9 17  1  0  0  0  0
  6  7  1  0  0  0  0
 21 24  1  0  0  0  0
 24 25  2  0  0  0  0
 22 25  1  0  0  0  0
 22 26  2  0  0  0  0
 23 26  1  0  0  0  0
 21 23  2  0  0  0  0
 25 28  1  0  0  0  0
 26 29  1  0  0  0  0
 22 30  1  0  0  0  0
 24 27  1  0  0  0  0
 31 32  1  0  0  0  0
 31 33  1  0  0  0  0
 31 34  1  0  0  0  0
 23 31  1  0  0  0  0
  6 21  1  0  0  0  0
 35 38  1  0  0  0  0
 38 39  2  0  0  0  0
 36 39  1  0  0  0  0
 36 40  2  0  0  0  0
 37 40  1  0  0  0  0
 35 37  2  0  0  0  0
 39 43  1  0  0  0  0
 40 44  1  0  0  0  0
 36 45  1  0  0  0  0
 37 41  1  0  0  0  0
 38 42  1  0  0  0  0
  6 35  1  0  0  0  0
  1 46  1  0  0  0  0
M  END
> <PM6_ENERGY>
170.858

> <UID>
LIBUEQSJYNFGAQ-IHXQHMBZNA-M

> <FITNESS>
1.1409

> <GCODE>
11760

> <GraphENC>
11760 72_1_0,81_66_1,108_46_1,88_67_1,239170_37_1,240357_37_1,239181_36_1, 72_0_81_0_SINGLE_Xlig:0_Xlig:1,72_2_108_3_SINGLE_scaff:0_MPhosphine:1,72_1_88_0_SINGLE_Xlig:0_Xlig:1,108_0_239170_0_SINGLE_LPhosphineSubMSym:0_SubArM:1,108_1_240357_0_SINGLE_LPhosphineSubMSym:0_SubArM:1,108_2_239181_0_SINGLE_LPhosphineSubM:0_SubArS:1, SymmetricSet [symIds=[239170, 240357]] 

> <GraphJson>
{
  "graphId": 11760,
  "gVertices": [
    {
      "lstAPs": [
        {
          "id": 313763,
          "atomPositionNumber": 0,
          "atomPositionNumberInMol": 0,
          "apClass": {
            "rule": "Xlig",
            "subClass": 0,
            "bndTyp": "SINGLE"
          },
          "dirVec": {
            "x": -2.3339,
            "y": -0.0087,
            "z": 0.8172
          }
        },
        {
          "id": 313764,
          "atomPositionNumber": 0,
          "atomPositionNumberInMol": 0,
          "apClass": {
            "rule": "Xlig",
            "subClass": 0,
            "bndTyp": "SINGLE"
          },
          "dirVec": {
            "x": 2.336,
            "y": -5.0E-4,
            "z": 0.829
          }
        },
        {
          "id": 313765,
          "atomPositionNumber": 0,
          "atomPositionNumberInMol": 0,
          "apClass": {
            "rule": "scaff",
            "subClass": 0,
            "bndTyp": "SINGLE"
          },
          "dirVec": {
            "x": -0.0095,
            "y": 0.0046,
            "z": -1.7113
          }
        }
      ],
      "lstSymAPs": [
        {
          "symIds": [
            0,
            1
          ]
        }
      ],
      "mol": {
        "atoms": [
          {
            "elSymbol": "Pt",
            "p3d": {
              "x": -0.0098,
              "y": 0.0049,
              "z": 0.6289
            }
          },
          {
            "elSymbol": "C",
            "p3d": {
              "x": -6.0E-4,
              "y": 0.0016,
              "z": 2.5609
            }
          },
          {
            "elSymbol": "O",
            "p3d": {
              "x": 0.0025,
              "y": -0.0041,
              "z": 3.6974
            }
          },
          {
            "elSymbol": "Du",
            "p3d": {
              "x": -0.007,
              "y": 1.0013,
              "z": 0.6372
            }
          },
          {
            "elSymbol": "Du",
            "p3d": {
              "x": -0.0014,
              "y": 0.9902,
              "z": 2.5698
            }
          }
        ],
        "bonds": [
          {
            "atomIds": [
              1,
              2
            ],
            "bo": "TRIPLE"
          },
          {
            "atomIds": [
              0,
              1
            ],
            "bo": "SINGLE"
          },
          {
            "atomIds": [
              3,
              0
            ],
            "bo": "SINGLE"
          },
          {
            "atomIds": [
              4,
              1
            ],
            "bo": "SINGLE"
          }
        ]
      },
      "vertexId": 72,
      "buildingBlockId": 0,
      "buildingBlockType": "SCAFFOLD",
      "isRCV": false,
      "properties": {
        "ATTACHMENT_POINTS": "1#Xlig:0:SINGLE:-2.3339%-0.0087%0.8172,Xlig:0:SINGLE:2.3360%-0.0005%0.8290,scaff:0:SINGLE:-0.0095%0.0046%-1.7113 "
      },
      "uniquefyingPropertyKeys": [],
      "allowedMutationTypes": [
        "DELETE",
        "EXTEND",
        "CHANGEBRANCH",
        "CHANGELINK",
        "ADDLINK",
        "DELETELINK",
        "DELETECHAIN"
      ],
      "vertexType": "MolecularFragment"
    },
    {
      "lstAPs": [
        {
          "id": 313766,
          "atomPositionNumber": 0,
          "atomPositionNumberInMol": 5,
          "apClass": {
            "rule": "Xlig",
            "subClass": 1,
            "bndTyp": "SINGLE"
          },
          "dirVec": {
            "x": 0.0192,
            "y": -0.0048,
            "z": -0.5645
          }
        }
      ],
      "lstSymAPs": [],
      "mol": {
        "atoms": [
          {
            "elSymbol": "C",
            "p3d": {
              "x": -1.967,
              "y": -0.0075,
              "z": -0.4937
            }
          },
          {
            "elSymbol": "N",
            "p3d": {
              "x": -3.1263,
              "y": -0.0054,
              "z": -0.4354
            }
          },
          {
            "elSymbol": "Du",
            "p3d": {
              "x": -1.9744,
              "y": 0.9926,
              "z": -0.5036
            }
          }
        ],
        "bonds": [
          {
            "atomIds": [
              0,
              1
            ],
            "bo": "TRIPLE"
          },
          {
            "atomIds": [
              2,
              0
            ],
            "bo": "SINGLE"
          }
        ]
      },
      "vertexId": 81,
      "buildingBlockId": 65,
      "buildingBlockType": "FRAGMENT",
      "isRCV": false,
      "properties": {
        "ATTACHMENT_POINTS": "1#Xlig:1:SINGLE:0.0192%-0.0048%-0.5645 "
      },
      "uniquefyingPropertyKeys": [],
      "allowedMutationTypes": [
        "DELETE",
        "EXTEND",
        "CHANGEBRANCH",
        "CHANGELINK",
        "ADDLINK",
        "DELETELINK",
        "DELETECHAIN"
      ],
      "vertexType": "MolecularFragment"
    },
    {
      "lstAPs": [
        {
          "id": 313767,
          "atomPositionNumber": 0,
          "atomPositionNumberInMol": 8,
          "apClass": {
            "rule": "LPhosphineSubMSym",
            "subClass": 0,
            "bndTyp": "SINGLE"
          },
          "dirVec": {
            "x": 6.6301,
            "y": -0.008,
            "z": 3.7073
          }
        },
        {
          "id": 313768,
          "atomPositionNumber": 0,
          "atomPositionNumberInMol": 8,
          "apClass": {
            "rule": "LPhosphineSubMSym",
            "subClass": 0,
            "bndTyp": "SINGLE"
          },
          "dirVec": {
            "x": 9.0941,
            "y": -1.5268,
            "z": 3.4114
          }
        },
        {
          "id": 313769,
          "atomPositionNumber": 0,
          "atomPositionNumberInMol": 8,
          "apClass": {
            "rule": "LPhosphineSubM",
            "subClass": 0,
            "bndTyp": "SINGLE"
          },
          "dirVec": {
            "x": 9.1017,
            "y": 1.5197,
            "z": 3.4174
          }
        },
        {
          "id": 313770,
          "atomPositionNumber": 0,
          "atomPositionNumberInMol": 8,
          "apClass": {
            "rule": "MPhosphine",
            "subClass": 1,
            "bndTyp": "SINGLE"
          },
          "dirVec": {
            "x": 7.9584,
            "y": 0.0035,
            "z": 0.5116
          }
        }
      ],
      "lstSymAPs": [
        {
          "symIds": [
            0,
            1
          ]
        }
      ],
      "mol": {
        "atoms": [
          {
            "elSymbol": "P",
            "p3d": {
              "x": 8.2404,
              "y": 0.0024,
              "z": 2.8031
            }
          }
        ],
        "bonds": []
      },
      "vertexId": 108,
      "buildingBlockId": 45,
      "buildingBlockType": "FRAGMENT",
      "isRCV": false,
      "properties": {
        "ATTACHMENT_POINTS": "1#LPhosphineSubMSym:0:SINGLE:6.6301%-0.0080%3.7073,LPhosphineSubMSym:0:SINGLE:9.0941%-1.5268%3.4114,LPhosphineSubM:0:SINGLE:9.1017%1.5197%3.4174,MPhosphine:1:SINGLE:7.9584%0.0035%0.5116 "
      },
      "uniquefyingPropertyKeys": [],
      "allowedMutationTypes": [
        "DELETE",
        "EXTEND",
        "CHANGEBRANCH",
        "CHANGELINK",
        "ADDLINK",
        "DELETELINK",
        "DELETECHAIN"
      ],
      "vertexType": "MolecularFragment"
    },
    {
      "lstAPs": [
        {
          "id": 313771,
          "atomPositionNumber": 0,
          "atomPositionNumberInMol": 48,
          "apClass": {
            "rule": "Xlig",
            "subClass": 1,
            "bndTyp": "SINGLE"
          },
          "dirVec": {
            "x": -0.0053,
            "y": -0.0027,
            "z": 0.63
          }
        }
      ],
      "lstSymAPs": [],
      "mol": {
        "atoms": [
          {
            "elSymbol": "Cl",
            "p3d": {
              "x": 2.3243,
              "y": -0.0063,
              "z": 0.8189
            }
          }
        ],
        "bonds": []
      },
      "vertexId": 88,
      "buildingBlockId": 66,
      "buildingBlockType": "FRAGMENT",
      "isRCV": false,
      "properties": {
        "ATTACHMENT_POINTS": "1#Xlig:1:SINGLE:-0.0053%-0.0027%0.6300 "
      },
      "uniquefyingPropertyKeys": [],
      "allowedMutationTypes": [
        "DELETE",
        "EXTEND",
        "CHANGEBRANCH",
        "CHANGELINK",
        "ADDLINK",
        "DELETELINK",
        "DELETECHAIN"
      ],
      "vertexType": "MolecularFragment"
    },
    {
      "lstAPs": [
        {
          "id": 313808,
          "atomPositionNumber": 0,
          "atomPositionNumberInMol": 9,
          "apClass": {
            "rule": "SubArM",
            "subClass": 1,
            "bndTyp": "SINGLE"
          },
          "dirVec": {
            "x": 0.3016,
            "y": 0.3831,
            "z": -0.6449
          }
        }
      ],
      "lstSymAPs": [],
      "mol": {
        "atoms": [
          {
            "elSymbol": "C",
            "p3d": {
              "x": 1.7096,
              "y": 0.5525,
              "z": -1.2136
            }
          },
          {
            "elSymbol": "C",
            "p3d": {
              "x": 4.2502,
              "y": 0.8767,
              "z": -2.2636
            }
          },
          {
            "elSymbol": "C",
            "p3d": {
              "x": 2.3368,
              "y": 1.7899,
              "z": -1.1199
            }
          },
          {
            "elSymbol": "C",
            "p3d": {
              "x": 2.344,
              "y": -0.5151,
              "z": -1.819
            }
          },
          {
            "elSymbol": "C",
            "p3d": {
              "x": 3.6162,
              "y": -0.3625,
              "z": -2.3439
            }
          },
          {
            "elSymbol": "C",
            "p3d": {
              "x": 3.6039,
              "y": 1.9353,
              "z": -1.6584
            }
          },
          {
            "elSymbol": "H",
            "p3d": {
              "x": 1.8411,
              "y": -1.493,
              "z": -1.8837
            }
          },
          {
            "elSymbol": "H",
            "p3d": {
              "x": 4.113,
              "y": -1.2006,
              "z": -2.8069
            }
          },
          {
            "elSymbol": "H",
            "p3d": {
              "x": 4.1107,
              "y": 2.9115,
              "z": -1.5913
            }
          },
          {
            "elSymbol": "H",
            "p3d": {
              "x": 5.2516,
              "y": 0.992,
              "z": -2.67
            }
          },
          {
            "elSymbol": "C",
            "p3d": {
              "x": 1.6301,
              "y": 2.9729,
              "z": -0.4606
            }
          },
          {
            "elSymbol": "H",
            "p3d": {
              "x": 2.3743,
              "y": 3.6775,
              "z": -0.0646
            }
          },
          {
            "elSymbol": "H",
            "p3d": {
              "x": 1.0016,
              "y": 2.6144,
              "z": 0.3512
            }
          },
          {
            "elSymbol": "H",
            "p3d": {
              "x": 1.0097,
              "y": 3.4845,
              "z": -1.1971
            }
          }
        ],
        "bonds": [
          {
            "atomIds": [
              0,
              3
            ],
            "bo": "SINGLE"
          },
          {
            "atomIds": [
              3,
              4
            ],
            "bo": "DOUBLE"
          },
          {
            "atomIds": [
              1,
              4
            ],
            "bo": "SINGLE"
          },
          {
            "atomIds": [
              1,
              5
            ],
            "bo": "DOUBLE"
          },
          {
            "atomIds": [
              2,
              5
            ],
            "bo": "SINGLE"
          },
          {
            "atomIds": [
              0,
              2
            ],
            "bo": "DOUBLE"
          },
          {
            "atomIds": [
              4,
              7
            ],
            "bo": "SINGLE"
          },
          {
            "atomIds": [
              5,
              8
            ],
            "bo": "SINGLE"
          },
          {
            "atomIds": [
              1,
              9
            ],
            "bo": "SINGLE"
          },
          {
            "atomIds": [
              3,
              6
            ],
            "bo": "SINGLE"
          },
          {
            "atomIds": [
              10,
              11
            ],
            "bo": "SINGLE"
          },
          {
            "atomIds": [
              10,
              12
            ],
            "bo": "SINGLE"
          },
          {
            "atomIds": [
              10,
              13
            ],
            "bo": "SINGLE"
          },
          {
            "atomIds": [
              2,
              10
            ],
            "bo": "SINGLE"
          }
        ]
      },
      "vertexId": 239170,
      "buildingBlockId": 36,
      "buildingBlockType": "FRAGMENT",
      "isRCV": false,
      "properties": {
        "ATTACHMENT_POINTS": "1#SubArM:1:SINGLE:0.3016%0.3831%-0.6449 "
      },
      "uniquefyingPropertyKeys": [],
      "allowedMutationTypes": [
        "DELETE",
        "EXTEND",
        "CHANGEBRANCH",
        "CHANGELINK",
        "ADDLINK",
        "DELETELINK",
        "DELETECHAIN"
      ],
      "vertexType": "MolecularFragment"
    },
    {
      "lstAPs": [
        {
          "id": 313809,
          "atomPositionNumber": 0,
          "atomPositionNumberInMol": 23,
          "apClass": {
            "rule": "SubArM",
            "subClass": 1,
            "bndTyp": "SINGLE"
          },
          "dirVec": {
            "x": 0.3016,
            "y": 0.3831,
            "z": -0.6449
          }
        }
      ],
      "lstSymAPs": [],
      "mol": {
        "atoms": [
          {
            "elSymbol": "C",
            "p3d": {
              "x": 1.7096,
              "y": 0.5525,
              "z": -1.2136
            }
          },
          {
            "elSymbol": "C",
            "p3d": {
              "x": 4.2502,
              "y": 0.8767,
              "z": -2.2636
            }
          },
          {
            "elSymbol": "C",
            "p3d": {
              "x": 2.3368,
              "y": 1.7899,
              "z": -1.1199
            }
          },
          {
            "elSymbol": "C",
            "p3d": {
              "x": 2.344,
              "y": -0.5151,
              "z": -1.819
            }
          },
          {
            "elSymbol": "C",
            "p3d": {
              "x": 3.6162,
              "y": -0.3625,
              "z": -2.3439
            }
          },
          {
            "elSymbol": "C",
            "p3d": {
              "x": 3.6039,
              "y": 1.9353,
              "z": -1.6584
            }
          },
          {
            "elSymbol": "H",
            "p3d": {
              "x": 1.8411,
              "y": -1.493,
              "z": -1.8837
            }
          },
          {
            "elSymbol": "H",
            "p3d": {
              "x": 4.113,
              "y": -1.2006,
              "z": -2.8069
            }
          },
          {
            "elSymbol": "H",
            "p3d": {
              "x": 4.1107,
              "y": 2.9115,
              "z": -1.5913
            }
          },
          {
            "elSymbol": "H",
            "p3d": {
              "x": 5.2516,
              "y": 0.992,
              "z": -2.67
            }
          },
          {
            "elSymbol": "C",
            "p3d": {
              "x": 1.6301,
              "y": 2.9729,
              "z": -0.4606
            }
          },
          {
            "elSymbol": "H",
            "p3d": {
              "x": 2.3743,
              "y": 3.6775,
              "z": -0.0646
            }
          },
          {
            "elSymbol": "H",
            "p3d": {
              "x": 1.0016,
              "y": 2.6144,
              "z": 0.3512
            }
          },
          {
            "elSymbol": "H",
            "p3d": {
              "x": 1.0097,
              "y": 3.4845,
              "z": -1.1971
            }
          }
        ],
        "bonds": [
          {
            "atomIds": [
              0,
              3
            ],
            "bo": "SINGLE"
          },
          {
            "atomIds": [
              3,
              4
            ],
            "bo": "DOUBLE"
          },
          {
            "atomIds": [
              1,
              4
            ],
            "bo": "SINGLE"
          },
          {
            "atomIds": [
              1,
              5
            ],
            "bo": "DOUBLE"
          },
          {
            "atomIds": [
              2,
              5
            ],
            "bo": "SINGLE"
          },
          {
            "atomIds": [
              0,
              2
            ],
            "bo": "DOUBLE"
          },
          {
            "atomIds": [
              4,
              7
            ],
            "bo": "SINGLE"
          },
          {
            "atomIds": [
              5,
              8
            ],
            "bo": "SINGLE"
          },
          {
            "atomIds": [
              1,
              9
            ],
            "bo": "SINGLE"
          },
          {
            "atomIds": [
              3,
              6
            ],
            "bo": "SINGLE"
          },
          {
            "atomIds": [
              10,
              11
            ],
            "bo": "SINGLE"
          },
          {
            "atomIds": [
              10,
              12
            ],
            "bo": "SINGLE"
          },
          {
            "atomIds": [
              10,
              13
            ],
            "bo": "SINGLE"
          },
          {
            "atomIds": [
              2,
              10
            ],
            "bo": "SINGLE"
          }
        ]
      },
      "vertexId": 240357,
      "buildingBlockId": 36,
      "buildingBlockType": "FRAGMENT",
      "isRCV": false,
      "properties": {
        "ATTACHMENT_POINTS": "1#SubArM:1:SINGLE:0.3016%0.3831%-0.6449 "
      },
      "uniquefyingPropertyKeys": [],
      "allowedMutationTypes": [
        "DELETE",
        "EXTEND",
        "CHANGEBRANCH",
        "CHANGELINK",
        "ADDLINK",
        "DELETELINK",
        "DELETECHAIN"
      ],
      "vertexType": "MolecularFragment"
    },
    {
      "lstAPs": [
        {
          "id": 313810,
          "atomPositionNumber": 0,
          "atomPositionNumberInMol": 37,
          "apClass": {
            "rule": "SubArS",
            "subClass": 1,
            "bndTyp": "SINGLE"
          },
          "dirVec": {
            "x": 0.2973,
            "y": 0.3873,
            "z": -0.6389
          }
        }
      ],
      "lstSymAPs": [],
      "mol": {
        "atoms": [
          {
            "elSymbol": "C",
            "p3d": {
              "x": 1.6995,
              "y": 0.5593,
              "z": -1.2083
            }
          },
          {
            "elSymbol": "C",
            "p3d": {
              "x": 4.2563,
              "y": 0.8754,
              "z": -2.2592
            }
          },
          {
            "elSymbol": "C",
            "p3d": {
              "x": 2.3334,
              "y": 1.79,
              "z": -1.1338
            }
          },
          {
            "elSymbol": "C",
            "p3d": {
              "x": 2.3422,
              "y": -0.5107,
              "z": -1.8125
            }
          },
          {
            "elSymbol": "C",
            "p3d": {
              "x": 3.612,
              "y": -0.3527,
              "z": -2.3321
            }
          },
          {
            "elSymbol": "C",
            "p3d": {
              "x": 3.6062,
              "y": 1.9513,
              "z": -1.6526
            }
          },
          {
            "elSymbol": "H",
            "p3d": {
              "x": 1.833,
              "y": 2.6461,
              "z": -0.6488
            }
          },
          {
            "elSymbol": "H",
            "p3d": {
              "x": 1.8361,
              "y": -1.4773,
              "z": -1.887
            }
          },
          {
            "elSymbol": "H",
            "p3d": {
              "x": 4.115,
              "y": -1.2043,
              "z": -2.8152
            }
          },
          {
            "elSymbol": "H",
            "p3d": {
              "x": 4.1097,
              "y": 2.9214,
              "z": -1.5842
            }
          },
          {
            "elSymbol": "H",
            "p3d": {
              "x": 5.2498,
              "y": 0.9926,
              "z": -2.665
            }
          }
        ],
        "bonds": [
          {
            "atomIds": [
              0,
              3
            ],
            "bo": "SINGLE"
          },
          {
            "atomIds": [
              3,
              4
            ],
            "bo": "DOUBLE"
          },
          {
            "atomIds": [
              1,
              4
            ],
            "bo": "SINGLE"
          },
          {
            "atomIds": [
              1,
              5
            ],
            "bo": "DOUBLE"
          },
          {
            "atomIds": [
              2,
              5
            ],
            "bo": "SINGLE"
          },
          {
            "atomIds": [
              0,
              2
            ],
            "bo": "DOUBLE"
          },
          {
            "atomIds": [
              4,
              8
            ],
            "bo": "SINGLE"
          },
          {
            "atomIds": [
              5,
              9
            ],
            "bo": "SINGLE"
          },
          {
            "atomIds": [
              1,
              10
            ],
            "bo": "SINGLE"
          },
          {
            "atomIds": [
              2,
              6
            ],
            "bo": "SINGLE"
          },
          {
            "atomIds": [
              3,
              7
            ],
            "bo": "SINGLE"
          }
        ]
      },
      "vertexId": 239181,
      "buildingBlockId": 35,
      "buildingBlockType": "FRAGMENT",
      "isRCV": false,
      "properties": {
        "ATTACHMENT_POINTS": "1#SubArS:1:SINGLE:0.2973%0.3873%-0.6389 "
      },
      "uniquefyingPropertyKeys": [],
      "allowedMutationTypes": [
        "DELETE",
        "EXTEND",
        "CHANGEBRANCH",
        "CHANGELINK",
        "ADDLINK",
        "DELETELINK",
        "DELETECHAIN"
      ],
      "vertexType": "MolecularFragment"
    }
  ],
  "gEdges": [
    {
      "srcAPID": 313763,
      "trgAPID": 313766,
      "bondType": "SINGLE"
    },
    {
      "srcAPID": 313765,
      "trgAPID": 313770,
      "bondType": "SINGLE"
    },
    {
      "srcAPID": 313764,
      "trgAPID": 313771,
      "bondType": "SINGLE"
    },
    {
      "srcAPID": 313767,
      "trgAPID": 313808,
      "bondType": "SINGLE"
    },
    {
      "srcAPID": 313768,
      "trgAPID": 313809,
      "bondType": "SINGLE"
    },
    {
      "srcAPID": 313769,
      "trgAPID": 313810,
      "bondType": "SINGLE"
    }
  ],
  "gRings": [],
  "symVertices": [
    {
      "symIds": [
        239170,
        240357
      ]
    }
  ]
}

> <SMILES>
[Pt](C#O)(C#N)([P](C=1C(=C(C(=C(C1C([H])([H])[H])[H])[H])[H])[H])(C=2C(=C(C(=C(C2C([H])([H])[H])[H])[H])[H])[H])C=3C(=C(C(=C(C3[H])[H])[H])[H])[H])Cl

$$$$
