M00007273
  CDK     04222211203D

 26 26  0  0  0  0  0  0  0  0999 V2000
   -1.6699    0.5941    0.4273 Pt  0  0  0  0  0  0  0  0  0  0  0  0
   -3.6481    0.5433    0.3862 C   0  0  0  0  0  0  0  0  0  0  0  0
   -4.7840    0.4707    0.3415 O   0  0  0  0  0  0  0  0  0  0  0  0
   -1.4551    2.4385    1.1689 C   0  0  0  0  0  0  0  0  0  0  0  0
   -1.3610    3.5030    1.6083 N   0  0  0  0  0  0  0  0  0  0  0  0
    1.3398   -1.3329   -1.0825 C   0  0  0  0  0  0  0  0  0  0  0  0
    0.3090   -1.6855   -1.3027 H   0  0  0  0  0  0  0  0  0  0  0  0
    2.0078   -2.2136   -0.9845 H   0  0  0  0  0  0  0  0  0  0  0  0
    1.8635   -0.3265   -2.1051 C   0  0  0  0  0  0  0  0  0  0  0  0
    2.9373   -0.1111   -1.9078 H   0  0  0  0  0  0  0  0  0  0  0  0
    1.8330   -0.7722   -3.1210 H   0  0  0  0  0  0  0  0  0  0  0  0
    1.0678    0.9771   -2.0815 C   0  0  0  0  0  0  0  0  0  0  0  0
    1.5130    1.7519   -2.7411 H   0  0  0  0  0  0  0  0  0  0  0  0
   -0.0004    0.8472   -2.3473 H   0  0  0  0  0  0  0  0  0  0  0  0
    1.3950   -0.7951    0.2703 O   0  0  0  0  0  0  0  0  0  0  0  0
    1.1797    1.6223   -0.7796 O   0  0  0  0  0  0  0  0  0  0  0  0
    0.5750    0.6570    0.4557 P   0  0  0  0  0  0  0  0  0  0  0  0
    1.3257    1.3362    1.9994 C   0  0  0  0  0  0  0  0  0  0  0  0
    0.7157    1.1182    2.8913 H   0  0  0  0  0  0  0  0  0  0  0  0
    2.3359    0.9300    2.1733 H   0  0  0  0  0  0  0  0  0  0  0  0
    1.4195    2.4390    1.9436 H   0  0  0  0  0  0  0  0  0  0  0  0
   -2.1637   -1.5229   -0.4244 S   0  0  0  0  0  0  0  0  0  0  0  0
   -1.7454   -2.4625    1.0714 C   0  0  0  0  0  0  0  0  0  0  0  0
   -2.3390   -3.3850    1.0908 H   0  0  0  0  0  0  0  0  0  0  0  0
   -1.9671   -1.8880    1.9771 H   0  0  0  0  0  0  0  0  0  0  0  0
   -0.6836   -2.7332    1.0721 H   0  0  0  0  0  0  0  0  0  0  0  0
  2  3  3  0  0  0  0
  1  2  1  0  0  0  0
  4  5  3  0  0  0  0
  1  4  1  0  0  0  0
  6  7  1  0  0  0  0
  8  6  1  0  0  0  0
  9  6  1  0  0  0  0
 10  9  1  0  0  0  0
 11  9  1  0  0  0  0
 12  9  1  0  0  0  0
 13 12  1  0  0  0  0
 14 12  1  0  0  0  0
 15  6  1  0  0  0  0
 15 17  1  0  0  0  0
 16 12  1  0  0  0  0
 16 17  1  0  0  0  0
  1 17  1  0  0  0  0
 18 19  1  0  0  0  0
 18 20  1  0  0  0  0
 18 21  1  0  0  0  0
 17 18  1  0  0  0  0
 23 24  1  0  0  0  0
 23 25  1  0  0  0  0
 23 26  1  0  0  0  0
 22 23  1  0  0  0  0
  1 22  1  0  0  0  0
M  END
> <PM6_ENERGY>
-456.546

> <UID>
UWOQZGXYPKGEJD-XXQSSOCPNA-M

> <FITNESS>
1.1391

> <GCODE>
8146

> <GraphENC>
8146 72_1_0,81_66_1,119_59_1,85_64_1,164308_31_1, 72_0_81_0_SINGLE_Xlig:0_Xlig:1,72_2_119_1_SINGLE_scaff:0_MPhosphonite:1,72_1_85_0_SINGLE_Xlig:0_Xlig:1,119_0_164308_0_SINGLE_LPhosphoniteSubR:0_SubRS:1, 

> <GraphJson>
{
  "graphId": 8146,
  "gVertices": [
    {
      "lstAPs": [
        {
          "id": 214795,
          "atomPositionNumber": 0,
          "atomPositionNumberInMol": 0,
          "apClass": {
            "rule": "Xlig",
            "subClass": 0,
            "bndTyp": "SINGLE"
          },
          "dirVec": {
            "x": -2.3339,
            "y": -0.0087,
            "z": 0.8172
          }
        },
        {
          "id": 214796,
          "atomPositionNumber": 0,
          "atomPositionNumberInMol": 0,
          "apClass": {
            "rule": "Xlig",
            "subClass": 0,
            "bndTyp": "SINGLE"
          },
          "dirVec": {
            "x": 2.336,
            "y": -5.0E-4,
            "z": 0.829
          }
        },
        {
          "id": 214797,
          "atomPositionNumber": 0,
          "atomPositionNumberInMol": 0,
          "apClass": {
            "rule": "scaff",
            "subClass": 0,
            "bndTyp": "SINGLE"
          },
          "dirVec": {
            "x": -0.0095,
            "y": 0.0046,
            "z": -1.7113
          }
        }
      ],
      "lstSymAPs": [
        {
          "symIds": [
            0,
            1
          ]
        }
      ],
      "mol": {
        "atoms": [
          {
            "elSymbol": "Pt",
            "p3d": {
              "x": -0.0098,
              "y": 0.0049,
              "z": 0.6289
            }
          },
          {
            "elSymbol": "C",
            "p3d": {
              "x": -6.0E-4,
              "y": 0.0016,
              "z": 2.5609
            }
          },
          {
            "elSymbol": "O",
            "p3d": {
              "x": 0.0025,
              "y": -0.0041,
              "z": 3.6974
            }
          },
          {
            "elSymbol": "Du",
            "p3d": {
              "x": -0.007,
              "y": 1.0013,
              "z": 0.6372
            }
          },
          {
            "elSymbol": "Du",
            "p3d": {
              "x": -0.0014,
              "y": 0.9902,
              "z": 2.5698
            }
          }
        ],
        "bonds": [
          {
            "atomIds": [
              1,
              2
            ],
            "bo": "TRIPLE"
          },
          {
            "atomIds": [
              0,
              1
            ],
            "bo": "SINGLE"
          },
          {
            "atomIds": [
              3,
              0
            ],
            "bo": "SINGLE"
          },
          {
            "atomIds": [
              4,
              1
            ],
            "bo": "SINGLE"
          }
        ]
      },
      "vertexId": 72,
      "buildingBlockId": 0,
      "buildingBlockType": "SCAFFOLD",
      "isRCV": false,
      "properties": {
        "ATTACHMENT_POINTS": "1#Xlig:0:SINGLE:-2.3339%-0.0087%0.8172,Xlig:0:SINGLE:2.3360%-0.0005%0.8290,scaff:0:SINGLE:-0.0095%0.0046%-1.7113 "
      },
      "uniquefyingPropertyKeys": [],
      "allowedMutationTypes": [
        "DELETE",
        "EXTEND",
        "CHANGEBRANCH",
        "CHANGELINK",
        "ADDLINK",
        "DELETELINK",
        "DELETECHAIN"
      ],
      "vertexType": "MolecularFragment"
    },
    {
      "lstAPs": [
        {
          "id": 214798,
          "atomPositionNumber": 0,
          "atomPositionNumberInMol": 5,
          "apClass": {
            "rule": "Xlig",
            "subClass": 1,
            "bndTyp": "SINGLE"
          },
          "dirVec": {
            "x": 0.0192,
            "y": -0.0048,
            "z": -0.5645
          }
        }
      ],
      "lstSymAPs": [],
      "mol": {
        "atoms": [
          {
            "elSymbol": "C",
            "p3d": {
              "x": -1.967,
              "y": -0.0075,
              "z": -0.4937
            }
          },
          {
            "elSymbol": "N",
            "p3d": {
              "x": -3.1263,
              "y": -0.0054,
              "z": -0.4354
            }
          },
          {
            "elSymbol": "Du",
            "p3d": {
              "x": -1.9744,
              "y": 0.9926,
              "z": -0.5036
            }
          }
        ],
        "bonds": [
          {
            "atomIds": [
              0,
              1
            ],
            "bo": "TRIPLE"
          },
          {
            "atomIds": [
              2,
              0
            ],
            "bo": "SINGLE"
          }
        ]
      },
      "vertexId": 81,
      "buildingBlockId": 65,
      "buildingBlockType": "FRAGMENT",
      "isRCV": false,
      "properties": {
        "ATTACHMENT_POINTS": "1#Xlig:1:SINGLE:0.0192%-0.0048%-0.5645 "
      },
      "uniquefyingPropertyKeys": [],
      "allowedMutationTypes": [
        "DELETE",
        "EXTEND",
        "CHANGEBRANCH",
        "CHANGELINK",
        "ADDLINK",
        "DELETELINK",
        "DELETECHAIN"
      ],
      "vertexType": "MolecularFragment"
    },
    {
      "lstAPs": [
        {
          "id": 214799,
          "atomPositionNumber": 11,
          "atomPositionNumberInMol": 19,
          "apClass": {
            "rule": "LPhosphoniteSubR",
            "subClass": 0,
            "bndTyp": "SINGLE"
          },
          "dirVec": {
            "x": 2.7128,
            "y": 1.5224,
            "z": 3.4841
          }
        },
        {
          "id": 214800,
          "atomPositionNumber": 11,
          "atomPositionNumberInMol": 19,
          "apClass": {
            "rule": "MPhosphonite",
            "subClass": 1,
            "bndTyp": "SINGLE"
          },
          "dirVec": {
            "x": 2.5476,
            "y": 4.788,
            "z": 4.3969
          }
        }
      ],
      "lstSymAPs": [],
      "mol": {
        "atoms": [
          {
            "elSymbol": "C",
            "p3d": {
              "x": 0.7537,
              "y": 3.745,
              "z": 0.8399
            }
          },
          {
            "elSymbol": "H",
            "p3d": {
              "x": 0.5695,
              "y": 4.7704,
              "z": 1.1332
            }
          },
          {
            "elSymbol": "H",
            "p3d": {
              "x": -0.148,
              "y": 3.3512,
              "z": 0.3374
            }
          },
          {
            "elSymbol": "C",
            "p3d": {
              "x": 1.9094,
              "y": 3.7216,
              "z": -0.1375
            }
          },
          {
            "elSymbol": "H",
            "p3d": {
              "x": 2.0131,
              "y": 2.7201,
              "z": -0.556
            }
          },
          {
            "elSymbol": "H",
            "p3d": {
              "x": 1.7132,
              "y": 4.3969,
              "z": -0.9763
            }
          },
          {
            "elSymbol": "C",
            "p3d": {
              "x": 3.1937,
              "y": 4.0991,
              "z": 0.5062
            }
          },
          {
            "elSymbol": "H",
            "p3d": {
              "x": 4.0091,
              "y": 4.059,
              "z": -0.2475
            }
          },
          {
            "elSymbol": "H",
            "p3d": {
              "x": 3.1376,
              "y": 5.1254,
              "z": 0.85
            }
          },
          {
            "elSymbol": "O",
            "p3d": {
              "x": 1.0555,
              "y": 2.9275,
              "z": 2.0087
            }
          },
          {
            "elSymbol": "O",
            "p3d": {
              "x": 3.5155,
              "y": 3.2295,
              "z": 1.6213
            }
          },
          {
            "elSymbol": "P",
            "p3d": {
              "x": 2.4376,
              "y": 3.1406,
              "z": 2.7957
            }
          }
        ],
        "bonds": [
          {
            "atomIds": [
              0,
              1
            ],
            "bo": "SINGLE"
          },
          {
            "atomIds": [
              2,
              0
            ],
            "bo": "SINGLE"
          },
          {
            "atomIds": [
              3,
              0
            ],
            "bo": "SINGLE"
          },
          {
            "atomIds": [
              4,
              3
            ],
            "bo": "SINGLE"
          },
          {
            "atomIds": [
              5,
              3
            ],
            "bo": "SINGLE"
          },
          {
            "atomIds": [
              6,
              3
            ],
            "bo": "SINGLE"
          },
          {
            "atomIds": [
              7,
              6
            ],
            "bo": "SINGLE"
          },
          {
            "atomIds": [
              8,
              6
            ],
            "bo": "SINGLE"
          },
          {
            "atomIds": [
              9,
              0
            ],
            "bo": "SINGLE"
          },
          {
            "atomIds": [
              9,
              11
            ],
            "bo": "SINGLE"
          },
          {
            "atomIds": [
              10,
              6
            ],
            "bo": "SINGLE"
          },
          {
            "atomIds": [
              10,
              11
            ],
            "bo": "SINGLE"
          }
        ]
      },
      "vertexId": 119,
      "buildingBlockId": 58,
      "buildingBlockType": "FRAGMENT",
      "isRCV": false,
      "properties": {
        "ATTACHMENT_POINTS": "12#LPhosphoniteSubR:0:SINGLE:2.7128%1.5224%3.4841,MPhosphonite:1:SINGLE:2.5476%4.7880%4.3969 "
      },
      "uniquefyingPropertyKeys": [],
      "allowedMutationTypes": [
        "DELETE",
        "EXTEND",
        "CHANGEBRANCH",
        "CHANGELINK",
        "ADDLINK",
        "DELETELINK",
        "DELETECHAIN"
      ],
      "vertexType": "MolecularFragment"
    },
    {
      "lstAPs": [
        {
          "id": 214801,
          "atomPositionNumber": 0,
          "atomPositionNumberInMol": 24,
          "apClass": {
            "rule": "Xlig",
            "subClass": 1,
            "bndTyp": "SINGLE"
          },
          "dirVec": {
            "x": -0.102,
            "y": 0.0185,
            "z": -1.0265
          }
        }
      ],
      "lstSymAPs": [],
      "mol": {
        "atoms": [
          {
            "elSymbol": "S",
            "p3d": {
              "x": -0.3267,
              "y": 2.3403,
              "z": -1.0022
            }
          },
          {
            "elSymbol": "C",
            "p3d": {
              "x": -0.626,
              "y": 2.4866,
              "z": 0.7805
            }
          },
          {
            "elSymbol": "H",
            "p3d": {
              "x": 0.1766,
              "y": 3.089,
              "z": 1.2414
            }
          },
          {
            "elSymbol": "H",
            "p3d": {
              "x": -0.651,
              "y": 1.5065,
              "z": 1.2643
            }
          },
          {
            "elSymbol": "H",
            "p3d": {
              "x": -1.5658,
              "y": 2.981,
              "z": 0.9515
            }
          }
        ],
        "bonds": [
          {
            "atomIds": [
              1,
              2
            ],
            "bo": "SINGLE"
          },
          {
            "atomIds": [
              1,
              3
            ],
            "bo": "SINGLE"
          },
          {
            "atomIds": [
              1,
              4
            ],
            "bo": "SINGLE"
          },
          {
            "atomIds": [
              0,
              1
            ],
            "bo": "SINGLE"
          }
        ]
      },
      "vertexId": 85,
      "buildingBlockId": 63,
      "buildingBlockType": "FRAGMENT",
      "isRCV": false,
      "properties": {
        "ATTACHMENT_POINTS": "1#Xlig:1:SINGLE:-0.1020%0.0185%-1.0265 "
      },
      "uniquefyingPropertyKeys": [],
      "allowedMutationTypes": [
        "DELETE",
        "EXTEND",
        "CHANGEBRANCH",
        "CHANGELINK",
        "ADDLINK",
        "DELETELINK",
        "DELETECHAIN"
      ],
      "vertexType": "MolecularFragment"
    },
    {
      "lstAPs": [
        {
          "id": 214818,
          "atomPositionNumber": 0,
          "atomPositionNumberInMol": 20,
          "apClass": {
            "rule": "SubRS",
            "subClass": 1,
            "bndTyp": "SINGLE"
          },
          "dirVec": {
            "x": 0.2865,
            "y": 0.3959,
            "z": -0.6387
          }
        }
      ],
      "lstSymAPs": [],
      "mol": {
        "atoms": [
          {
            "elSymbol": "C",
            "p3d": {
              "x": 0.3969,
              "y": -0.0496,
              "z": 0.8235
            }
          },
          {
            "elSymbol": "H",
            "p3d": {
              "x": -0.6146,
              "y": -0.163,
              "z": 1.2402
            }
          },
          {
            "elSymbol": "H",
            "p3d": {
              "x": 0.9335,
              "y": -0.9979,
              "z": 0.8998
            }
          },
          {
            "elSymbol": "H",
            "p3d": {
              "x": 0.9252,
              "y": 0.7237,
              "z": 1.3995
            }
          }
        ],
        "bonds": [
          {
            "atomIds": [
              0,
              1
            ],
            "bo": "SINGLE"
          },
          {
            "atomIds": [
              0,
              2
            ],
            "bo": "SINGLE"
          },
          {
            "atomIds": [
              0,
              3
            ],
            "bo": "SINGLE"
          }
        ]
      },
      "vertexId": 164308,
      "buildingBlockId": 30,
      "buildingBlockType": "FRAGMENT",
      "isRCV": false,
      "properties": {
        "ATTACHMENT_POINTS": "1#SubRS:1:SINGLE:0.2865%0.3959%-0.6387 "
      },
      "uniquefyingPropertyKeys": [],
      "allowedMutationTypes": [
        "DELETE",
        "EXTEND",
        "CHANGEBRANCH",
        "CHANGELINK",
        "ADDLINK",
        "DELETELINK",
        "DELETECHAIN"
      ],
      "vertexType": "MolecularFragment"
    }
  ],
  "gEdges": [
    {
      "srcAPID": 214795,
      "trgAPID": 214798,
      "bondType": "SINGLE"
    },
    {
      "srcAPID": 214797,
      "trgAPID": 214800,
      "bondType": "SINGLE"
    },
    {
      "srcAPID": 214796,
      "trgAPID": 214801,
      "bondType": "SINGLE"
    },
    {
      "srcAPID": 214799,
      "trgAPID": 214818,
      "bondType": "SINGLE"
    }
  ],
  "gRings": [],
  "symVertices": []
}

> <SMILES>
[Pt](C#O)(C#N)([P]1(OC([H])([H])C([H])([H])C([H])([H])O1)C([H])([H])[H])SC([H])([H])[H]

$$$$
