M00007420
  CDK     04222211233D

 59 60  0  0  0  0  0  0  0  0999 V2000
    2.1426   -0.1008   -0.2931 Pt  0  0  0  0  0  0  0  0  0  0  0  0
    4.0765   -0.0887   -0.2106 C   0  0  0  0  0  0  0  0  0  0  0  0
    5.2167   -0.0674   -0.1197 O   0  0  0  0  0  0  0  0  0  0  0  0
    2.1889   -2.4159   -0.0021 S   0  0  0  0  0  0  0  0  0  0  0  0
    3.0231   -2.8896   -1.5448 C   0  0  0  0  0  0  0  0  0  0  0  0
    4.0435   -3.2234   -1.3277 H   0  0  0  0  0  0  0  0  0  0  0  0
    3.0599   -2.0569   -2.2536 H   0  0  0  0  0  0  0  0  0  0  0  0
    2.4822   -3.7219   -2.0090 H   0  0  0  0  0  0  0  0  0  0  0  0
   -0.6423   -0.0127    0.7535 N   0  0  0  0  0  0  0  0  0  0  0  0
    0.1470   -0.1147   -0.3087 C   0  0  2  0  0  0  0  0  0  0  0  0
   -0.6707   -0.2901   -1.5890 C   0  0  0  0  0  0  0  0  0  0  0  0
   -2.1417   -0.3900   -1.0900 C   0  0  0  0  0  0  0  0  0  0  0  0
   -2.1413   -0.1658    0.4472 C   0  0  0  0  0  0  0  0  0  0  0  0
   -2.7825    0.3472   -1.6030 H   0  0  0  0  0  0  0  0  0  0  0  0
   -2.5735   -1.3740   -1.3455 H   0  0  0  0  0  0  0  0  0  0  0  0
   -0.2087   -1.5885   -2.2898 C   0  0  0  0  0  0  0  0  0  0  0  0
    0.8657   -1.4861   -2.5587 H   0  0  0  0  0  0  0  0  0  0  0  0
   -0.2487   -2.4340   -1.5694 H   0  0  0  0  0  0  0  0  0  0  0  0
   -1.0176   -1.9402   -3.5338 C   0  0  0  0  0  0  0  0  0  0  0  0
   -2.0764   -2.1039   -3.3043 H   0  0  0  0  0  0  0  0  0  0  0  0
   -0.6384   -2.8611   -3.9943 H   0  0  0  0  0  0  0  0  0  0  0  0
   -0.9644   -1.1509   -4.2936 H   0  0  0  0  0  0  0  0  0  0  0  0
   -2.7007   -1.3754    1.1958 C   0  0  0  0  0  0  0  0  0  0  0  0
   -2.6305   -1.2516    2.2853 H   0  0  0  0  0  0  0  0  0  0  0  0
   -2.1681   -2.3026    0.9420 H   0  0  0  0  0  0  0  0  0  0  0  0
   -3.7596   -1.5307    0.9568 H   0  0  0  0  0  0  0  0  0  0  0  0
   -0.1794    0.2301    2.1101 C   0  0  0  0  0  0  0  0  0  0  0  0
    0.5431    0.7254    4.7682 C   0  0  0  0  0  0  0  0  0  0  0  0
   -0.0280    1.5659    2.5576 C   0  0  0  0  0  0  0  0  0  0  0  0
    0.0946   -0.8567    2.9739 C   0  0  0  0  0  0  0  0  0  0  0  0
    0.4417   -0.5864    4.3083 C   0  0  0  0  0  0  0  0  0  0  0  0
    0.3199    1.7926    3.8986 C   0  0  0  0  0  0  0  0  0  0  0  0
    0.6481   -1.4147    4.9850 H   0  0  0  0  0  0  0  0  0  0  0  0
    0.4311    2.8150    4.2575 H   0  0  0  0  0  0  0  0  0  0  0  0
    0.8107    0.9183    5.8078 H   0  0  0  0  0  0  0  0  0  0  0  0
   -0.2018    2.7537    1.6735 C   0  0  0  0  0  0  0  0  0  0  0  0
   -0.3022    2.5103    0.5978 H   0  0  0  0  0  0  0  0  0  0  0  0
    0.6849    3.4119    1.7281 H   0  0  0  0  0  0  0  0  0  0  0  0
   -1.0703    3.3569    1.9655 H   0  0  0  0  0  0  0  0  0  0  0  0
    0.0642   -2.2820    2.5406 C   0  0  0  0  0  0  0  0  0  0  0  0
   -0.2441   -2.4335    1.4957 H   0  0  0  0  0  0  0  0  0  0  0  0
   -0.5943   -2.8919    3.1725 H   0  0  0  0  0  0  0  0  0  0  0  0
    1.0762   -2.7258    2.6112 H   0  0  0  0  0  0  0  0  0  0  0  0
   -0.4375    0.9230   -2.5176 C   0  0  0  0  0  0  0  0  0  0  0  0
    0.6477    0.9784   -2.7544 H   0  0  0  0  0  0  0  0  0  0  0  0
   -0.9471    0.7343   -3.4848 H   0  0  0  0  0  0  0  0  0  0  0  0
   -0.9001    2.2608   -1.9532 C   0  0  0  0  0  0  0  0  0  0  0  0
   -0.4388    2.4685   -0.9689 H   0  0  0  0  0  0  0  0  0  0  0  0
   -1.9873    2.3092   -1.8372 H   0  0  0  0  0  0  0  0  0  0  0  0
   -0.6020    3.0849   -2.6133 H   0  0  0  0  0  0  0  0  0  0  0  0
   -2.8925    1.1010    0.8527 C   0  0  0  0  0  0  0  0  0  0  0  0
   -2.5438    1.9860    0.3055 H   0  0  0  0  0  0  0  0  0  0  0  0
   -2.7791    1.3175    1.9241 H   0  0  0  0  0  0  0  0  0  0  0  0
   -3.9670    0.9997    0.6573 H   0  0  0  0  0  0  0  0  0  0  0  0
    2.4267    2.2067   -0.4699 S   0  0  0  0  0  0  0  0  0  0  0  0
    2.9313    2.3087   -2.2120 C   0  0  0  0  0  0  0  0  0  0  0  0
    2.2442    2.9642   -2.7576 H   0  0  0  0  0  0  0  0  0  0  0  0
    2.9318    1.3221   -2.6859 H   0  0  0  0  0  0  0  0  0  0  0  0
    3.9382    2.7361   -2.2762 H   0  0  0  0  0  0  0  0  0  0  0  0
  2  3  3  0  0  0  0
  1  2  1  0  0  0  0
  5  6  1  0  0  0  0
  5  7  1  0  0  0  0
  5  8  1  0  0  0  0
  4  5  1  0  0  0  0
  1  4  1  0  0  0  0
  9 10  1  0  0  0  0
 11 10  1  0  0  0  0
 12 11  1  0  0  0  0
 13  9  1  0  0  0  0
 14 12  1  0  0  0  0
 15 12  1  0  0  0  0
 12 13  1  0  0  0  0
  1 10  1  0  0  0  0
 17 16  1  0  0  0  0
 18 16  1  0  0  0  0
 19 16  1  0  0  0  0
 20 19  1  0  0  0  0
 21 19  1  0  0  0  0
 22 19  1  0  0  0  0
 11 16  1  0  0  0  0
 24 23  1  0  0  0  0
 25 23  1  0  0  0  0
 26 23  1  0  0  0  0
 13 23  1  0  0  0  0
 27 30  1  0  0  0  0
 30 31  2  0  0  0  0
 28 31  1  0  0  0  0
 28 32  2  0  0  0  0
 29 32  1  0  0  0  0
 27 29  2  0  0  0  0
 31 33  1  0  0  0  0
 32 34  1  0  0  0  0
 28 35  1  0  0  0  0
 36 37  1  0  0  0  0
 36 38  1  0  0  0  0
 36 39  1  0  0  0  0
 29 36  1  0  0  0  0
 40 41  1  0  0  0  0
 40 42  1  0  0  0  0
 40 43  1  0  0  0  0
 30 40  1  0  0  0  0
  9 27  1  0  0  0  0
 45 44  1  0  0  0  0
 46 44  1  0  0  0  0
 47 44  1  0  0  0  0
 48 47  1  0  0  0  0
 49 47  1  0  0  0  0
 50 47  1  0  0  0  0
 11 44  1  0  0  0  0
 52 51  1  0  0  0  0
 53 51  1  0  0  0  0
 54 51  1  0  0  0  0
 13 51  1  0  0  0  0
 56 57  1  0  0  0  0
 56 58  1  0  0  0  0
 56 59  1  0  0  0  0
 55 56  1  0  0  0  0
  1 55  1  0  0  0  0
M  END
> <PM6_ENERGY>
-125.868

> <UID>
CPCOVQHBYCYMKX-DJYDXCTJNA-L

> <FITNESS>
1.14402

> <GCODE>
8303

> <GraphENC>
8303 72_1_0,79_64_1,92_14_1,85_64_1,165025_24_1,167808_28_1,165012_38_1,165017_24_1,165029_28_1, 72_0_79_0_SINGLE_Xlig:0_Xlig:1,72_2_92_1_SINGLE_scaff:0_MPyrrolidinylidene:1,72_1_85_0_SINGLE_Xlig:0_Xlig:1,92_3_165025_0_SINGLE_LPyrrolidinylideneSubCGammaS:0_LPyrrolidinylideneSubCGammaS:1,92_5_167808_0_SINGLE_LPyrrolidinylideneSubCAlpha:0_LPyrrolidinylideneSubCAlpha:1,92_0_165012_0_SINGLE_LPyrrolidinylideneSubNS:0_SubArL:1,92_2_165017_0_SINGLE_LPyrrolidinylideneSubCGammaL:0_LPyrrolidinylideneSubCGammaS:1,92_4_165029_0_SINGLE_LPyrrolidinylideneSubCAlpha:0_LPyrrolidinylideneSubCAlpha:1, SymmetricSet [symIds=[167808, 165029]] 

> <GraphJson>
{
  "graphId": 8303,
  "gVertices": [
    {
      "lstAPs": [
        {
          "id": 219463,
          "atomPositionNumber": 0,
          "atomPositionNumberInMol": 0,
          "apClass": {
            "rule": "Xlig",
            "subClass": 0,
            "bndTyp": "SINGLE"
          },
          "dirVec": {
            "x": -2.3339,
            "y": -0.0087,
            "z": 0.8172
          }
        },
        {
          "id": 219464,
          "atomPositionNumber": 0,
          "atomPositionNumberInMol": 0,
          "apClass": {
            "rule": "Xlig",
            "subClass": 0,
            "bndTyp": "SINGLE"
          },
          "dirVec": {
            "x": 2.336,
            "y": -5.0E-4,
            "z": 0.829
          }
        },
        {
          "id": 219465,
          "atomPositionNumber": 0,
          "atomPositionNumberInMol": 0,
          "apClass": {
            "rule": "scaff",
            "subClass": 0,
            "bndTyp": "SINGLE"
          },
          "dirVec": {
            "x": -0.0095,
            "y": 0.0046,
            "z": -1.7113
          }
        }
      ],
      "lstSymAPs": [
        {
          "symIds": [
            0,
            1
          ]
        }
      ],
      "mol": {
        "atoms": [
          {
            "elSymbol": "Pt",
            "p3d": {
              "x": -0.0098,
              "y": 0.0049,
              "z": 0.6289
            }
          },
          {
            "elSymbol": "C",
            "p3d": {
              "x": -6.0E-4,
              "y": 0.0016,
              "z": 2.5609
            }
          },
          {
            "elSymbol": "O",
            "p3d": {
              "x": 0.0025,
              "y": -0.0041,
              "z": 3.6974
            }
          },
          {
            "elSymbol": "Du",
            "p3d": {
              "x": -0.007,
              "y": 1.0013,
              "z": 0.6372
            }
          },
          {
            "elSymbol": "Du",
            "p3d": {
              "x": -0.0014,
              "y": 0.9902,
              "z": 2.5698
            }
          }
        ],
        "bonds": [
          {
            "atomIds": [
              1,
              2
            ],
            "bo": "TRIPLE"
          },
          {
            "atomIds": [
              0,
              1
            ],
            "bo": "SINGLE"
          },
          {
            "atomIds": [
              3,
              0
            ],
            "bo": "SINGLE"
          },
          {
            "atomIds": [
              4,
              1
            ],
            "bo": "SINGLE"
          }
        ]
      },
      "vertexId": 72,
      "buildingBlockId": 0,
      "buildingBlockType": "SCAFFOLD",
      "isRCV": false,
      "properties": {
        "ATTACHMENT_POINTS": "1#Xlig:0:SINGLE:-2.3339%-0.0087%0.8172,Xlig:0:SINGLE:2.3360%-0.0005%0.8290,scaff:0:SINGLE:-0.0095%0.0046%-1.7113 "
      },
      "uniquefyingPropertyKeys": [],
      "allowedMutationTypes": [
        "DELETE",
        "EXTEND",
        "CHANGEBRANCH",
        "CHANGELINK",
        "ADDLINK",
        "DELETELINK",
        "DELETECHAIN"
      ],
      "vertexType": "MolecularFragment"
    },
    {
      "lstAPs": [
        {
          "id": 219466,
          "atomPositionNumber": 0,
          "atomPositionNumberInMol": 5,
          "apClass": {
            "rule": "Xlig",
            "subClass": 1,
            "bndTyp": "SINGLE"
          },
          "dirVec": {
            "x": -0.102,
            "y": 0.0185,
            "z": -1.0265
          }
        }
      ],
      "lstSymAPs": [],
      "mol": {
        "atoms": [
          {
            "elSymbol": "S",
            "p3d": {
              "x": -0.3267,
              "y": 2.3403,
              "z": -1.0022
            }
          },
          {
            "elSymbol": "C",
            "p3d": {
              "x": -0.626,
              "y": 2.4866,
              "z": 0.7805
            }
          },
          {
            "elSymbol": "H",
            "p3d": {
              "x": 0.1766,
              "y": 3.089,
              "z": 1.2414
            }
          },
          {
            "elSymbol": "H",
            "p3d": {
              "x": -0.651,
              "y": 1.5065,
              "z": 1.2643
            }
          },
          {
            "elSymbol": "H",
            "p3d": {
              "x": -1.5658,
              "y": 2.981,
              "z": 0.9515
            }
          }
        ],
        "bonds": [
          {
            "atomIds": [
              1,
              2
            ],
            "bo": "SINGLE"
          },
          {
            "atomIds": [
              1,
              3
            ],
            "bo": "SINGLE"
          },
          {
            "atomIds": [
              1,
              4
            ],
            "bo": "SINGLE"
          },
          {
            "atomIds": [
              0,
              1
            ],
            "bo": "SINGLE"
          }
        ]
      },
      "vertexId": 79,
      "buildingBlockId": 63,
      "buildingBlockType": "FRAGMENT",
      "isRCV": false,
      "properties": {
        "ATTACHMENT_POINTS": "1#Xlig:1:SINGLE:-0.1020%0.0185%-1.0265 "
      },
      "uniquefyingPropertyKeys": [],
      "allowedMutationTypes": [
        "DELETE",
        "EXTEND",
        "CHANGEBRANCH",
        "CHANGELINK",
        "ADDLINK",
        "DELETELINK",
        "DELETECHAIN"
      ],
      "vertexType": "MolecularFragment"
    },
    {
      "lstAPs": [
        {
          "id": 219467,
          "atomPositionNumber": 0,
          "atomPositionNumberInMol": 10,
          "apClass": {
            "rule": "LPyrrolidinylideneSubNS",
            "subClass": 0,
            "bndTyp": "SINGLE"
          },
          "dirVec": {
            "x": 1.1368,
            "y": 2.9892,
            "z": 6.3678
          }
        },
        {
          "id": 219468,
          "atomPositionNumber": 1,
          "atomPositionNumberInMol": 11,
          "apClass": {
            "rule": "MPyrrolidinylidene",
            "subClass": 1,
            "bndTyp": "SINGLE"
          },
          "dirVec": {
            "x": 1.1351,
            "y": 5.0475,
            "z": 3.8064
          }
        },
        {
          "id": 219469,
          "atomPositionNumber": 2,
          "atomPositionNumberInMol": 12,
          "apClass": {
            "rule": "LPyrrolidinylideneSubCGammaL",
            "subClass": 0,
            "bndTyp": "SINGLE"
          },
          "dirVec": {
            "x": -1.6533,
            "y": 3.6844,
            "z": 2.5584
          }
        },
        {
          "id": 219470,
          "atomPositionNumber": 2,
          "atomPositionNumberInMol": 12,
          "apClass": {
            "rule": "LPyrrolidinylideneSubCGammaS",
            "subClass": 0,
            "bndTyp": "SINGLE"
          },
          "dirVec": {
            "x": 0.2707,
            "y": 2.2373,
            "z": 1.9364
          }
        },
        {
          "id": 219471,
          "atomPositionNumber": 4,
          "atomPositionNumberInMol": 14,
          "apClass": {
            "rule": "LPyrrolidinylideneSubCAlpha",
            "subClass": 0,
            "bndTyp": "SINGLE"
          },
          "dirVec": {
            "x": -1.0798,
            "y": 0.961,
            "z": 6.3715
          }
        },
        {
          "id": 219472,
          "atomPositionNumber": 4,
          "atomPositionNumberInMol": 14,
          "apClass": {
            "rule": "LPyrrolidinylideneSubCAlpha",
            "subClass": 0,
            "bndTyp": "SINGLE"
          },
          "dirVec": {
            "x": 0.6851,
            "y": 0.1558,
            "z": 4.841
          }
        }
      ],
      "lstSymAPs": [
        {
          "symIds": [
            4,
            5
          ]
        }
      ],
      "mol": {
        "atoms": [
          {
            "elSymbol": "N",
            "p3d": {
              "x": 0.4064,
              "y": 2.6218,
              "z": 5.1898
            }
          },
          {
            "elSymbol": "C",
            "p3d": {
              "x": 0.2992,
              "y": 3.4375,
              "z": 4.1309
            }
          },
          {
            "elSymbol": "C",
            "p3d": {
              "x": -0.589,
              "y": 2.7266,
              "z": 3.1026
            }
          },
          {
            "elSymbol": "C",
            "p3d": {
              "x": -1.2268,
              "y": 1.5592,
              "z": 3.8965
            }
          },
          {
            "elSymbol": "C",
            "p3d": {
              "x": -0.3002,
              "y": 1.286,
              "z": 5.1014
            }
          },
          {
            "elSymbol": "H",
            "p3d": {
              "x": -2.2272,
              "y": 1.8381,
              "z": 4.2502
            }
          },
          {
            "elSymbol": "H",
            "p3d": {
              "x": -1.3141,
              "y": 0.6862,
              "z": 3.272
            }
          }
        ],
        "bonds": [
          {
            "atomIds": [
              0,
              1
            ],
            "bo": "SINGLE"
          },
          {
            "atomIds": [
              2,
              1
            ],
            "bo": "SINGLE"
          },
          {
            "atomIds": [
              3,
              2
            ],
            "bo": "SINGLE"
          },
          {
            "atomIds": [
              4,
              0
            ],
            "bo": "SINGLE"
          },
          {
            "atomIds": [
              5,
              3
            ],
            "bo": "SINGLE"
          },
          {
            "atomIds": [
              6,
              3
            ],
            "bo": "SINGLE"
          },
          {
            "atomIds": [
              3,
              4
            ],
            "bo": "SINGLE"
          }
        ]
      },
      "vertexId": 92,
      "buildingBlockId": 13,
      "buildingBlockType": "FRAGMENT",
      "isRCV": false,
      "properties": {
        "ATTACHMENT_POINTS": "1#LPyrrolidinylideneSubNS:0:SINGLE:1.1368%2.9892%6.3678 2#MPyrrolidinylidene:1:SINGLE:1.1351%5.0475%3.8064 3#LPyrrolidinylideneSubCGammaL:0:SINGLE:-1.6533%3.6844%2.5584,LPyrrolidinylideneSubCGammaS:0:SINGLE:0.2707%2.2373%1.9364 5#LPyrrolidinylideneSubCAlpha:0:SINGLE:-1.0798%0.9610%6.3715,LPyrrolidinylideneSubCAlpha:0:SINGLE:0.6851%0.1558%4.8410 "
      },
      "uniquefyingPropertyKeys": [],
      "allowedMutationTypes": [
        "DELETE",
        "EXTEND",
        "CHANGEBRANCH",
        "CHANGELINK",
        "ADDLINK",
        "DELETELINK",
        "DELETECHAIN"
      ],
      "vertexType": "MolecularFragment"
    },
    {
      "lstAPs": [
        {
          "id": 219473,
          "atomPositionNumber": 0,
          "atomPositionNumberInMol": 56,
          "apClass": {
            "rule": "Xlig",
            "subClass": 1,
            "bndTyp": "SINGLE"
          },
          "dirVec": {
            "x": -0.102,
            "y": 0.0185,
            "z": -1.0265
          }
        }
      ],
      "lstSymAPs": [],
      "mol": {
        "atoms": [
          {
            "elSymbol": "S",
            "p3d": {
              "x": -0.3267,
              "y": 2.3403,
              "z": -1.0022
            }
          },
          {
            "elSymbol": "C",
            "p3d": {
              "x": -0.626,
              "y": 2.4866,
              "z": 0.7805
            }
          },
          {
            "elSymbol": "H",
            "p3d": {
              "x": 0.1766,
              "y": 3.089,
              "z": 1.2414
            }
          },
          {
            "elSymbol": "H",
            "p3d": {
              "x": -0.651,
              "y": 1.5065,
              "z": 1.2643
            }
          },
          {
            "elSymbol": "H",
            "p3d": {
              "x": -1.5658,
              "y": 2.981,
              "z": 0.9515
            }
          }
        ],
        "bonds": [
          {
            "atomIds": [
              1,
              2
            ],
            "bo": "SINGLE"
          },
          {
            "atomIds": [
              1,
              3
            ],
            "bo": "SINGLE"
          },
          {
            "atomIds": [
              1,
              4
            ],
            "bo": "SINGLE"
          },
          {
            "atomIds": [
              0,
              1
            ],
            "bo": "SINGLE"
          }
        ]
      },
      "vertexId": 85,
      "buildingBlockId": 63,
      "buildingBlockType": "FRAGMENT",
      "isRCV": false,
      "properties": {
        "ATTACHMENT_POINTS": "1#Xlig:1:SINGLE:-0.1020%0.0185%-1.0265 "
      },
      "uniquefyingPropertyKeys": [],
      "allowedMutationTypes": [
        "DELETE",
        "EXTEND",
        "CHANGEBRANCH",
        "CHANGELINK",
        "ADDLINK",
        "DELETELINK",
        "DELETECHAIN"
      ],
      "vertexType": "MolecularFragment"
    },
    {
      "lstAPs": [
        {
          "id": 219522,
          "atomPositionNumber": 0,
          "atomPositionNumberInMol": 17,
          "apClass": {
            "rule": "LPyrrolidinylideneSubCGammaS",
            "subClass": 1,
            "bndTyp": "SINGLE"
          },
          "dirVec": {
            "x": 2.2209,
            "y": 11.3247,
            "z": 13.404
          }
        }
      ],
      "lstSymAPs": [],
      "mol": {
        "atoms": [
          {
            "elSymbol": "C",
            "p3d": {
              "x": 2.4548,
              "y": 10.2992,
              "z": 14.5411
            }
          },
          {
            "elSymbol": "H",
            "p3d": {
              "x": 3.4157,
              "y": 10.5073,
              "z": 14.981
            }
          },
          {
            "elSymbol": "H",
            "p3d": {
              "x": 1.6835,
              "y": 10.432,
              "z": 15.3041
            }
          },
          {
            "elSymbol": "C",
            "p3d": {
              "x": 2.4332,
              "y": 8.8302,
              "z": 14.0744
            }
          },
          {
            "elSymbol": "H",
            "p3d": {
              "x": 3.2041,
              "y": 8.6763,
              "z": 13.3353
            }
          },
          {
            "elSymbol": "H",
            "p3d": {
              "x": 1.4458,
              "y": 8.6074,
              "z": 13.6521
            }
          },
          {
            "elSymbol": "H",
            "p3d": {
              "x": 2.6045,
              "y": 8.1976,
              "z": 14.9512
            }
          }
        ],
        "bonds": [
          {
            "atomIds": [
              1,
              0
            ],
            "bo": "SINGLE"
          },
          {
            "atomIds": [
              2,
              0
            ],
            "bo": "SINGLE"
          },
          {
            "atomIds": [
              3,
              0
            ],
            "bo": "SINGLE"
          },
          {
            "atomIds": [
              4,
              3
            ],
            "bo": "SINGLE"
          },
          {
            "atomIds": [
              5,
              3
            ],
            "bo": "SINGLE"
          },
          {
            "atomIds": [
              6,
              3
            ],
            "bo": "SINGLE"
          }
        ]
      },
      "vertexId": 165025,
      "buildingBlockId": 23,
      "buildingBlockType": "FRAGMENT",
      "isRCV": false,
      "properties": {
        "ATTACHMENT_POINTS": "1#LPyrrolidinylideneSubCGammaS:1:SINGLE:2.2209%11.3247%13.4040 "
      },
      "uniquefyingPropertyKeys": [],
      "allowedMutationTypes": [
        "DELETE",
        "EXTEND",
        "CHANGEBRANCH",
        "CHANGELINK",
        "ADDLINK",
        "DELETELINK",
        "DELETECHAIN"
      ],
      "vertexType": "MolecularFragment"
    },
    {
      "lstAPs": [
        {
          "id": 219523,
          "atomPositionNumber": 0,
          "atomPositionNumberInMol": 24,
          "apClass": {
            "rule": "LPyrrolidinylideneSubCAlpha",
            "subClass": 1,
            "bndTyp": "SINGLE"
          },
          "dirVec": {
            "x": 10.5718,
            "y": 9.5818,
            "z": 19.5273
          }
        }
      ],
      "lstSymAPs": [],
      "mol": {
        "atoms": [
          {
            "elSymbol": "C",
            "p3d": {
              "x": 11.7977,
              "y": 8.6986,
              "z": 19.2649
            }
          },
          {
            "elSymbol": "H",
            "p3d": {
              "x": 11.6263,
              "y": 8.0849,
              "z": 18.3966
            }
          },
          {
            "elSymbol": "H",
            "p3d": {
              "x": 11.9867,
              "y": 8.0758,
              "z": 20.122
            }
          },
          {
            "elSymbol": "H",
            "p3d": {
              "x": 12.6717,
              "y": 9.3283,
              "z": 19.0876
            }
          }
        ],
        "bonds": [
          {
            "atomIds": [
              1,
              0
            ],
            "bo": "SINGLE"
          },
          {
            "atomIds": [
              2,
              0
            ],
            "bo": "SINGLE"
          },
          {
            "atomIds": [
              3,
              0
            ],
            "bo": "SINGLE"
          }
        ]
      },
      "vertexId": 167808,
      "buildingBlockId": 27,
      "buildingBlockType": "FRAGMENT",
      "isRCV": false,
      "properties": {
        "ATTACHMENT_POINTS": "1#LPyrrolidinylideneSubCAlpha:1:SINGLE:10.5718%9.5818%19.5273 "
      },
      "uniquefyingPropertyKeys": [],
      "allowedMutationTypes": [
        "DELETE",
        "EXTEND",
        "CHANGEBRANCH",
        "CHANGELINK",
        "ADDLINK",
        "DELETELINK",
        "DELETECHAIN"
      ],
      "vertexType": "MolecularFragment"
    },
    {
      "lstAPs": [
        {
          "id": 219524,
          "atomPositionNumber": 0,
          "atomPositionNumberInMol": 28,
          "apClass": {
            "rule": "SubArL",
            "subClass": 1,
            "bndTyp": "SINGLE"
          },
          "dirVec": {
            "x": 0.2957,
            "y": 0.3816,
            "z": -0.6358
          }
        }
      ],
      "lstSymAPs": [],
      "mol": {
        "atoms": [
          {
            "elSymbol": "C",
            "p3d": {
              "x": 1.7088,
              "y": 0.551,
              "z": -1.2192
            }
          },
          {
            "elSymbol": "C",
            "p3d": {
              "x": 4.2535,
              "y": 0.8673,
              "z": -2.2548
            }
          },
          {
            "elSymbol": "C",
            "p3d": {
              "x": 2.3329,
              "y": 1.7979,
              "z": -1.1377
            }
          },
          {
            "elSymbol": "C",
            "p3d": {
              "x": 2.3315,
              "y": -0.5114,
              "z": -1.8171
            }
          },
          {
            "elSymbol": "C",
            "p3d": {
              "x": 3.6062,
              "y": -0.3595,
              "z": -2.3299
            }
          },
          {
            "elSymbol": "C",
            "p3d": {
              "x": 3.6205,
              "y": 1.9526,
              "z": -1.657
            }
          },
          {
            "elSymbol": "H",
            "p3d": {
              "x": 4.116,
              "y": -1.2062,
              "z": -2.8187
            }
          },
          {
            "elSymbol": "H",
            "p3d": {
              "x": 4.1193,
              "y": 2.9144,
              "z": -1.5883
            }
          },
          {
            "elSymbol": "H",
            "p3d": {
              "x": 5.2485,
              "y": 0.9961,
              "z": -2.6688
            }
          },
          {
            "elSymbol": "C",
            "p3d": {
              "x": 1.6389,
              "y": 2.9732,
              "z": -0.4581
            }
          },
          {
            "elSymbol": "H",
            "p3d": {
              "x": 2.3787,
              "y": 3.6649,
              "z": -0.0604
            }
          },
          {
            "elSymbol": "H",
            "p3d": {
              "x": 1.0049,
              "y": 2.601,
              "z": 0.3676
            }
          },
          {
            "elSymbol": "H",
            "p3d": {
              "x": 1.0013,
              "y": 3.4961,
              "z": -1.199
            }
          },
          {
            "elSymbol": "C",
            "p3d": {
              "x": 1.6397,
              "y": -1.8757,
              "z": -1.9164
            }
          },
          {
            "elSymbol": "H",
            "p3d": {
              "x": 2.3747,
              "y": -2.6603,
              "z": -1.9613
            }
          },
          {
            "elSymbol": "H",
            "p3d": {
              "x": 1.0044,
              "y": -1.9015,
              "z": -2.8054
            }
          },
          {
            "elSymbol": "H",
            "p3d": {
              "x": 1.0057,
              "y": -2.0243,
              "z": -1.0149
            }
          }
        ],
        "bonds": [
          {
            "atomIds": [
              0,
              3
            ],
            "bo": "SINGLE"
          },
          {
            "atomIds": [
              3,
              4
            ],
            "bo": "DOUBLE"
          },
          {
            "atomIds": [
              1,
              4
            ],
            "bo": "SINGLE"
          },
          {
            "atomIds": [
              1,
              5
            ],
            "bo": "DOUBLE"
          },
          {
            "atomIds": [
              2,
              5
            ],
            "bo": "SINGLE"
          },
          {
            "atomIds": [
              0,
              2
            ],
            "bo": "DOUBLE"
          },
          {
            "atomIds": [
              4,
              6
            ],
            "bo": "SINGLE"
          },
          {
            "atomIds": [
              5,
              7
            ],
            "bo": "SINGLE"
          },
          {
            "atomIds": [
              1,
              8
            ],
            "bo": "SINGLE"
          },
          {
            "atomIds": [
              9,
              10
            ],
            "bo": "SINGLE"
          },
          {
            "atomIds": [
              9,
              11
            ],
            "bo": "SINGLE"
          },
          {
            "atomIds": [
              9,
              12
            ],
            "bo": "SINGLE"
          },
          {
            "atomIds": [
              2,
              9
            ],
            "bo": "SINGLE"
          },
          {
            "atomIds": [
              13,
              14
            ],
            "bo": "SINGLE"
          },
          {
            "atomIds": [
              13,
              15
            ],
            "bo": "SINGLE"
          },
          {
            "atomIds": [
              13,
              16
            ],
            "bo": "SINGLE"
          },
          {
            "atomIds": [
              3,
              13
            ],
            "bo": "SINGLE"
          }
        ]
      },
      "vertexId": 165012,
      "buildingBlockId": 37,
      "buildingBlockType": "FRAGMENT",
      "isRCV": false,
      "properties": {
        "ATTACHMENT_POINTS": "1#SubArL:1:SINGLE:0.2957%0.3816%-0.6358 "
      },
      "uniquefyingPropertyKeys": [],
      "allowedMutationTypes": [
        "DELETE",
        "EXTEND",
        "CHANGEBRANCH",
        "CHANGELINK",
        "ADDLINK",
        "DELETELINK",
        "DELETECHAIN"
      ],
      "vertexType": "MolecularFragment"
    },
    {
      "lstAPs": [
        {
          "id": 219525,
          "atomPositionNumber": 0,
          "atomPositionNumberInMol": 45,
          "apClass": {
            "rule": "LPyrrolidinylideneSubCGammaS",
            "subClass": 1,
            "bndTyp": "SINGLE"
          },
          "dirVec": {
            "x": 2.2209,
            "y": 11.3247,
            "z": 13.404
          }
        }
      ],
      "lstSymAPs": [],
      "mol": {
        "atoms": [
          {
            "elSymbol": "C",
            "p3d": {
              "x": 2.4548,
              "y": 10.2992,
              "z": 14.5411
            }
          },
          {
            "elSymbol": "H",
            "p3d": {
              "x": 3.4157,
              "y": 10.5073,
              "z": 14.981
            }
          },
          {
            "elSymbol": "H",
            "p3d": {
              "x": 1.6835,
              "y": 10.432,
              "z": 15.3041
            }
          },
          {
            "elSymbol": "C",
            "p3d": {
              "x": 2.4332,
              "y": 8.8302,
              "z": 14.0744
            }
          },
          {
            "elSymbol": "H",
            "p3d": {
              "x": 3.2041,
              "y": 8.6763,
              "z": 13.3353
            }
          },
          {
            "elSymbol": "H",
            "p3d": {
              "x": 1.4458,
              "y": 8.6074,
              "z": 13.6521
            }
          },
          {
            "elSymbol": "H",
            "p3d": {
              "x": 2.6045,
              "y": 8.1976,
              "z": 14.9512
            }
          }
        ],
        "bonds": [
          {
            "atomIds": [
              1,
              0
            ],
            "bo": "SINGLE"
          },
          {
            "atomIds": [
              2,
              0
            ],
            "bo": "SINGLE"
          },
          {
            "atomIds": [
              3,
              0
            ],
            "bo": "SINGLE"
          },
          {
            "atomIds": [
              4,
              3
            ],
            "bo": "SINGLE"
          },
          {
            "atomIds": [
              5,
              3
            ],
            "bo": "SINGLE"
          },
          {
            "atomIds": [
              6,
              3
            ],
            "bo": "SINGLE"
          }
        ]
      },
      "vertexId": 165017,
      "buildingBlockId": 23,
      "buildingBlockType": "FRAGMENT",
      "isRCV": false,
      "properties": {
        "ATTACHMENT_POINTS": "1#LPyrrolidinylideneSubCGammaS:1:SINGLE:2.2209%11.3247%13.4040 "
      },
      "uniquefyingPropertyKeys": [],
      "allowedMutationTypes": [
        "DELETE",
        "EXTEND",
        "CHANGEBRANCH",
        "CHANGELINK",
        "ADDLINK",
        "DELETELINK",
        "DELETECHAIN"
      ],
      "vertexType": "MolecularFragment"
    },
    {
      "lstAPs": [
        {
          "id": 219526,
          "atomPositionNumber": 0,
          "atomPositionNumberInMol": 52,
          "apClass": {
            "rule": "LPyrrolidinylideneSubCAlpha",
            "subClass": 1,
            "bndTyp": "SINGLE"
          },
          "dirVec": {
            "x": 10.5718,
            "y": 9.5818,
            "z": 19.5273
          }
        }
      ],
      "lstSymAPs": [],
      "mol": {
        "atoms": [
          {
            "elSymbol": "C",
            "p3d": {
              "x": 11.7977,
              "y": 8.6986,
              "z": 19.2649
            }
          },
          {
            "elSymbol": "H",
            "p3d": {
              "x": 11.6263,
              "y": 8.0849,
              "z": 18.3966
            }
          },
          {
            "elSymbol": "H",
            "p3d": {
              "x": 11.9867,
              "y": 8.0758,
              "z": 20.122
            }
          },
          {
            "elSymbol": "H",
            "p3d": {
              "x": 12.6717,
              "y": 9.3283,
              "z": 19.0876
            }
          }
        ],
        "bonds": [
          {
            "atomIds": [
              1,
              0
            ],
            "bo": "SINGLE"
          },
          {
            "atomIds": [
              2,
              0
            ],
            "bo": "SINGLE"
          },
          {
            "atomIds": [
              3,
              0
            ],
            "bo": "SINGLE"
          }
        ]
      },
      "vertexId": 165029,
      "buildingBlockId": 27,
      "buildingBlockType": "FRAGMENT",
      "isRCV": false,
      "properties": {
        "ATTACHMENT_POINTS": "1#LPyrrolidinylideneSubCAlpha:1:SINGLE:10.5718%9.5818%19.5273 "
      },
      "uniquefyingPropertyKeys": [],
      "allowedMutationTypes": [
        "DELETE",
        "EXTEND",
        "CHANGEBRANCH",
        "CHANGELINK",
        "ADDLINK",
        "DELETELINK",
        "DELETECHAIN"
      ],
      "vertexType": "MolecularFragment"
    }
  ],
  "gEdges": [
    {
      "srcAPID": 219463,
      "trgAPID": 219466,
      "bondType": "SINGLE"
    },
    {
      "srcAPID": 219465,
      "trgAPID": 219468,
      "bondType": "SINGLE"
    },
    {
      "srcAPID": 219464,
      "trgAPID": 219473,
      "bondType": "SINGLE"
    },
    {
      "srcAPID": 219470,
      "trgAPID": 219522,
      "bondType": "SINGLE"
    },
    {
      "srcAPID": 219472,
      "trgAPID": 219523,
      "bondType": "SINGLE"
    },
    {
      "srcAPID": 219467,
      "trgAPID": 219524,
      "bondType": "SINGLE"
    },
    {
      "srcAPID": 219469,
      "trgAPID": 219525,
      "bondType": "SINGLE"
    },
    {
      "srcAPID": 219471,
      "trgAPID": 219526,
      "bondType": "SINGLE"
    }
  ],
  "gRings": [],
  "symVertices": [
    {
      "symIds": [
        167808,
        165029
      ]
    }
  ]
}

> <SMILES>
[Pt](C#O)(SC([H])([H])[H])([C]1N(C(C(C1(C([H])([H])C([H])([H])[H])C([H])([H])C([H])([H])[H])([H])[H])(C([H])([H])[H])C([H])([H])[H])C=2C(=C(C(=C(C2C([H])([H])[H])[H])[H])[H])C([H])([H])[H])SC([H])([H])[H]

$$$$
