M00009256
  CDK     04222212003D

 46 50  0  0  0  0  0  0  0  0999 V2000
   -3.0966   -0.6284    1.3603 Pt  0  0  0  0  0  0  0  0  0  0  0  0
   -4.9901   -0.7094    1.8030 C   0  0  0  0  0  0  0  0  0  0  0  0
   -6.1020   -0.7546    2.0556 O   0  0  0  0  0  0  0  0  0  0  0  0
   -2.9680    1.0257    2.4664 C   0  0  0  0  0  0  0  0  0  0  0  0
   -2.9214    1.9549    3.1525 N   0  0  0  0  0  0  0  0  0  0  0  0
   -0.8531   -0.5815    0.8842 P   0  0  0  0  0  0  0  0  0  0  0  0
    0.0278    1.8996    2.0236 N   0  0  0  0  0  0  0  0  0  0  0  0
   -0.5723   -2.4615   -1.2668 N   0  0  0  0  0  0  0  0  0  0  0  0
    0.0318    1.0102    0.9406 C   0  0  0  0  0  0  0  0  0  0  0  0
    0.8502    1.4905   -0.0799 C   0  0  0  0  0  0  0  0  0  0  0  0
    1.3916    2.7413    0.3775 C   0  0  0  0  0  0  0  0  0  0  0  0
    2.2731    3.6945   -0.1826 C   0  0  0  0  0  0  0  0  0  0  0  0
    2.6797    3.5310   -1.1781 H   0  0  0  0  0  0  0  0  0  0  0  0
    2.5941    4.8146    0.5528 C   0  0  0  0  0  0  0  0  0  0  0  0
    3.2698    5.5653    0.1468 H   0  0  0  0  0  0  0  0  0  0  0  0
    2.0532    5.0291    1.8565 C   0  0  0  0  0  0  0  0  0  0  0  0
    2.3383    5.9373    2.3892 H   0  0  0  0  0  0  0  0  0  0  0  0
    1.1911    4.1286    2.4409 C   0  0  0  0  0  0  0  0  0  0  0  0
    0.7658    4.2894    3.4275 H   0  0  0  0  0  0  0  0  0  0  0  0
    0.8595    2.9714    1.6924 C   0  0  0  0  0  0  0  0  0  0  0  0
    1.1332    0.8667   -1.3980 C   0  0  0  0  0  0  0  0  0  0  0  0
    0.7388    1.5333   -2.2072 H   0  0  0  0  0  0  0  0  0  0  0  0
    2.2384    0.8369   -1.5631 H   0  0  0  0  0  0  0  0  0  0  0  0
   -0.2737   -1.2024   -0.7276 C   0  0  0  0  0  0  0  0  0  0  0  0
    0.5728   -0.4968   -1.5811 C   0  0  0  0  0  0  0  0  0  0  0  0
    0.8210   -1.3464   -2.7141 C   0  0  0  0  0  0  0  0  0  0  0  0
    1.5839   -1.2101   -3.8967 C   0  0  0  0  0  0  0  0  0  0  0  0
    2.1371   -0.2910   -4.0767 H   0  0  0  0  0  0  0  0  0  0  0  0
    1.6048   -2.2529   -4.7971 C   0  0  0  0  0  0  0  0  0  0  0  0
    2.1830   -2.1757   -5.7162 H   0  0  0  0  0  0  0  0  0  0  0  0
    0.8734   -3.4558   -4.5599 C   0  0  0  0  0  0  0  0  0  0  0  0
    0.9240   -4.2457   -5.3104 H   0  0  0  0  0  0  0  0  0  0  0  0
    0.1169   -3.6319   -3.4230 C   0  0  0  0  0  0  0  0  0  0  0  0
   -0.4499   -4.5402   -3.2385 H   0  0  0  0  0  0  0  0  0  0  0  0
    0.0927   -2.5647   -2.4903 C   0  0  0  0  0  0  0  0  0  0  0  0
   -1.1654   -3.1715   -0.8638 H   0  0  0  0  0  0  0  0  0  0  0  0
   -0.4869    1.8041    2.8853 H   0  0  0  0  0  0  0  0  0  0  0  0
   -1.1938   -1.9817    3.2661 C   0  0  0  0  0  0  0  0  0  0  0  0
   -0.1178   -1.6910    2.2347 C   0  0  0  0  0  0  0  0  0  0  0  0
   -2.0480   -2.5527    2.8562 H   0  0  0  0  0  0  0  0  0  0  0  0
   -0.7827   -2.6019    4.0798 H   0  0  0  0  0  0  0  0  0  0  0  0
   -1.5970   -1.0770    3.7522 H   0  0  0  0  0  0  0  0  0  0  0  0
    0.7630   -1.1990    2.6962 H   0  0  0  0  0  0  0  0  0  0  0  0
    0.2689   -2.6293    1.7856 H   0  0  0  0  0  0  0  0  0  0  0  0
   -3.3073   -2.3314    0.3459 C   0  0  0  0  0  0  0  0  0  0  0  0
   -3.4517   -3.3400   -0.2008 N   0  0  0  0  0  0  0  0  0  0  0  0
  2  3  3  0  0  0  0
  1  2  1  0  0  0  0
  4  5  3  0  0  0  0
  1  4  1  0  0  0  0
  7  9  1  0  0  0  0
  8 24  1  0  0  0  0
  9  6  1  0  0  0  0
 10  9  2  0  0  0  0
 11 10  1  0  0  0  0
 11 20  2  0  0  0  0
 12 11  1  0  0  0  0
 13 12  1  0  0  0  0
 14 12  2  0  0  0  0
 15 14  1  0  0  0  0
 16 14  1  0  0  0  0
 17 16  1  0  0  0  0
 18 16  2  0  0  0  0
 18 20  1  0  0  0  0
 19 18  1  0  0  0  0
 20  7  1  0  0  0  0
 21 10  1  0  0  0  0
 22 21  1  0  0  0  0
 23 21  1  0  0  0  0
 24  6  1  0  0  0  0
 24 25  2  0  0  0  0
 25 21  1  0  0  0  0
 26 25  1  0  0  0  0
 26 35  2  0  0  0  0
 27 26  1  0  0  0  0
 28 27  1  0  0  0  0
 29 27  2  0  0  0  0
 30 29  1  0  0  0  0
 31 29  1  0  0  0  0
 32 31  1  0  0  0  0
 33 31  2  0  0  0  0
 33 35  1  0  0  0  0
 34 33  1  0  0  0  0
 35  8  1  0  0  0  0
 36  8  1  0  0  0  0
 37  7  1  0  0  0  0
  1  6  1  0  0  0  0
 38 39  1  0  0  0  0
 38 40  1  0  0  0  0
 38 41  1  0  0  0  0
 38 42  1  0  0  0  0
 39 43  1  0  0  0  0
 39 44  1  0  0  0  0
  6 39  1  0  0  0  0
 45 46  3  0  0  0  0
  1 45  1  0  0  0  0
M  END
> <PM6_ENERGY>
411.172

> <UID>
TYOCDVCFQULARB-OSJPARQHNA-N

> <FITNESS>
1.14113

> <GCODE>
10230

> <GraphENC>
10230 72_1_0,81_66_1,106_44_1,87_66_1,208110_32_1, 72_0_81_0_SINGLE_Xlig:0_Xlig:1,72_2_106_1_SINGLE_scaff:0_MPhosphine:1,72_1_87_0_SINGLE_Xlig:0_Xlig:1,106_0_208110_0_SINGLE_LPhosphineSubM:0_SubRS:1, 

> <GraphJson>
{
  "graphId": 10230,
  "gVertices": [
    {
      "lstAPs": [
        {
          "id": 271878,
          "atomPositionNumber": 0,
          "atomPositionNumberInMol": 0,
          "apClass": {
            "rule": "Xlig",
            "subClass": 0,
            "bndTyp": "SINGLE"
          },
          "dirVec": {
            "x": -2.3339,
            "y": -0.0087,
            "z": 0.8172
          }
        },
        {
          "id": 271879,
          "atomPositionNumber": 0,
          "atomPositionNumberInMol": 0,
          "apClass": {
            "rule": "Xlig",
            "subClass": 0,
            "bndTyp": "SINGLE"
          },
          "dirVec": {
            "x": 2.336,
            "y": -5.0E-4,
            "z": 0.829
          }
        },
        {
          "id": 271880,
          "atomPositionNumber": 0,
          "atomPositionNumberInMol": 0,
          "apClass": {
            "rule": "scaff",
            "subClass": 0,
            "bndTyp": "SINGLE"
          },
          "dirVec": {
            "x": -0.0095,
            "y": 0.0046,
            "z": -1.7113
          }
        }
      ],
      "lstSymAPs": [
        {
          "symIds": [
            0,
            1
          ]
        }
      ],
      "mol": {
        "atoms": [
          {
            "elSymbol": "Pt",
            "p3d": {
              "x": -0.0098,
              "y": 0.0049,
              "z": 0.6289
            }
          },
          {
            "elSymbol": "C",
            "p3d": {
              "x": -6.0E-4,
              "y": 0.0016,
              "z": 2.5609
            }
          },
          {
            "elSymbol": "O",
            "p3d": {
              "x": 0.0025,
              "y": -0.0041,
              "z": 3.6974
            }
          },
          {
            "elSymbol": "Du",
            "p3d": {
              "x": -0.007,
              "y": 1.0013,
              "z": 0.6372
            }
          },
          {
            "elSymbol": "Du",
            "p3d": {
              "x": -0.0014,
              "y": 0.9902,
              "z": 2.5698
            }
          }
        ],
        "bonds": [
          {
            "atomIds": [
              1,
              2
            ],
            "bo": "TRIPLE"
          },
          {
            "atomIds": [
              0,
              1
            ],
            "bo": "SINGLE"
          },
          {
            "atomIds": [
              3,
              0
            ],
            "bo": "SINGLE"
          },
          {
            "atomIds": [
              4,
              1
            ],
            "bo": "SINGLE"
          }
        ]
      },
      "vertexId": 72,
      "buildingBlockId": 0,
      "buildingBlockType": "SCAFFOLD",
      "isRCV": false,
      "properties": {
        "ATTACHMENT_POINTS": "1#Xlig:0:SINGLE:-2.3339%-0.0087%0.8172,Xlig:0:SINGLE:2.3360%-0.0005%0.8290,scaff:0:SINGLE:-0.0095%0.0046%-1.7113 "
      },
      "uniquefyingPropertyKeys": [],
      "allowedMutationTypes": [
        "DELETE",
        "EXTEND",
        "CHANGEBRANCH",
        "CHANGELINK",
        "ADDLINK",
        "DELETELINK",
        "DELETECHAIN"
      ],
      "vertexType": "MolecularFragment"
    },
    {
      "lstAPs": [
        {
          "id": 271881,
          "atomPositionNumber": 0,
          "atomPositionNumberInMol": 5,
          "apClass": {
            "rule": "Xlig",
            "subClass": 1,
            "bndTyp": "SINGLE"
          },
          "dirVec": {
            "x": 0.0192,
            "y": -0.0048,
            "z": -0.5645
          }
        }
      ],
      "lstSymAPs": [],
      "mol": {
        "atoms": [
          {
            "elSymbol": "C",
            "p3d": {
              "x": -1.967,
              "y": -0.0075,
              "z": -0.4937
            }
          },
          {
            "elSymbol": "N",
            "p3d": {
              "x": -3.1263,
              "y": -0.0054,
              "z": -0.4354
            }
          },
          {
            "elSymbol": "Du",
            "p3d": {
              "x": -1.9744,
              "y": 0.9926,
              "z": -0.5036
            }
          }
        ],
        "bonds": [
          {
            "atomIds": [
              0,
              1
            ],
            "bo": "TRIPLE"
          },
          {
            "atomIds": [
              2,
              0
            ],
            "bo": "SINGLE"
          }
        ]
      },
      "vertexId": 81,
      "buildingBlockId": 65,
      "buildingBlockType": "FRAGMENT",
      "isRCV": false,
      "properties": {
        "ATTACHMENT_POINTS": "1#Xlig:1:SINGLE:0.0192%-0.0048%-0.5645 "
      },
      "uniquefyingPropertyKeys": [],
      "allowedMutationTypes": [
        "DELETE",
        "EXTEND",
        "CHANGEBRANCH",
        "CHANGELINK",
        "ADDLINK",
        "DELETELINK",
        "DELETECHAIN"
      ],
      "vertexType": "MolecularFragment"
    },
    {
      "lstAPs": [
        {
          "id": 271882,
          "atomPositionNumber": 0,
          "atomPositionNumberInMol": 8,
          "apClass": {
            "rule": "LPhosphineSubM",
            "subClass": 0,
            "bndTyp": "SINGLE"
          },
          "dirVec": {
            "x": 9.6921,
            "y": 11.1939,
            "z": 8.6295
          }
        },
        {
          "id": 271883,
          "atomPositionNumber": 0,
          "atomPositionNumberInMol": 8,
          "apClass": {
            "rule": "MPhosphine",
            "subClass": 1,
            "bndTyp": "SINGLE"
          },
          "dirVec": {
            "x": 6.9761,
            "y": 12.58,
            "z": 7.2794
          }
        }
      ],
      "lstSymAPs": [],
      "mol": {
        "atoms": [
          {
            "elSymbol": "P",
            "p3d": {
              "x": 7.9602,
              "y": 10.8392,
              "z": 8.2268
            }
          },
          {
            "elSymbol": "N",
            "p3d": {
              "x": 8.5483,
              "y": 9.0407,
              "z": 6.1703
            }
          },
          {
            "elSymbol": "N",
            "p3d": {
              "x": 6.8549,
              "y": 11.2353,
              "z": 10.7656
            }
          },
          {
            "elSymbol": "C",
            "p3d": {
              "x": 7.892,
              "y": 9.2815,
              "z": 7.3648
            }
          },
          {
            "elSymbol": "C",
            "p3d": {
              "x": 7.2175,
              "y": 8.1492,
              "z": 7.7741
            }
          },
          {
            "elSymbol": "C",
            "p3d": {
              "x": 7.4688,
              "y": 7.1556,
              "z": 6.7782
            }
          },
          {
            "elSymbol": "C",
            "p3d": {
              "x": 7.0398,
              "y": 5.8455,
              "z": 6.598
            }
          },
          {
            "elSymbol": "H",
            "p3d": {
              "x": 6.3745,
              "y": 5.367,
              "z": 7.3292
            }
          },
          {
            "elSymbol": "C",
            "p3d": {
              "x": 7.4705,
              "y": 5.1358,
              "z": 5.5039
            }
          },
          {
            "elSymbol": "H",
            "p3d": {
              "x": 7.1596,
              "y": 4.1112,
              "z": 5.3392
            }
          },
          {
            "elSymbol": "C",
            "p3d": {
              "x": 8.3441,
              "y": 5.7392,
              "z": 4.5675
            }
          },
          {
            "elSymbol": "H",
            "p3d": {
              "x": 8.6908,
              "y": 5.1616,
              "z": 3.701
            }
          },
          {
            "elSymbol": "C",
            "p3d": {
              "x": 8.7529,
              "y": 7.0311,
              "z": 4.694
            }
          },
          {
            "elSymbol": "H",
            "p3d": {
              "x": 9.424,
              "y": 7.4893,
              "z": 3.9498
            }
          },
          {
            "elSymbol": "C",
            "p3d": {
              "x": 8.3101,
              "y": 7.7617,
              "z": 5.8077
            }
          },
          {
            "elSymbol": "C",
            "p3d": {
              "x": 6.3606,
              "y": 8.0074,
              "z": 9.0072
            }
          },
          {
            "elSymbol": "H",
            "p3d": {
              "x": 5.3323,
              "y": 7.8023,
              "z": 8.7023
            }
          },
          {
            "elSymbol": "H",
            "p3d": {
              "x": 6.7225,
              "y": 7.1449,
              "z": 9.551
            }
          },
          {
            "elSymbol": "C",
            "p3d": {
              "x": 7.0777,
              "y": 10.3774,
              "z": 9.7037
            }
          },
          {
            "elSymbol": "C",
            "p3d": {
              "x": 6.3769,
              "y": 9.2031,
              "z": 9.8991
            }
          },
          {
            "elSymbol": "C",
            "p3d": {
              "x": 5.6859,
              "y": 9.3381,
              "z": 11.1369
            }
          },
          {
            "elSymbol": "C",
            "p3d": {
              "x": 4.7979,
              "y": 8.509,
              "z": 11.8479
            }
          },
          {
            "elSymbol": "H",
            "p3d": {
              "x": 4.5514,
              "y": 7.5178,
              "z": 11.4749
            }
          },
          {
            "elSymbol": "C",
            "p3d": {
              "x": 4.2496,
              "y": 8.9952,
              "z": 13.0233
            }
          },
          {
            "elSymbol": "H",
            "p3d": {
              "x": 3.5227,
              "y": 8.3741,
              "z": 13.5615
            }
          },
          {
            "elSymbol": "C",
            "p3d": {
              "x": 4.59,
              "y": 10.2669,
              "z": 13.5215
            }
          },
          {
            "elSymbol": "H",
            "p3d": {
              "x": 4.1412,
              "y": 10.5932,
              "z": 14.4483
            }
          },
          {
            "elSymbol": "C",
            "p3d": {
              "x": 5.4622,
              "y": 11.0858,
              "z": 12.854
            }
          },
          {
            "elSymbol": "H",
            "p3d": {
              "x": 5.7481,
              "y": 12.0539,
              "z": 13.2582
            }
          },
          {
            "elSymbol": "C",
            "p3d": {
              "x": 6.0068,
              "y": 10.6045,
              "z": 11.6592
            }
          },
          {
            "elSymbol": "H",
            "p3d": {
              "x": 7.1991,
              "y": 12.1768,
              "z": 10.8969
            }
          },
          {
            "elSymbol": "H",
            "p3d": {
              "x": 9.0993,
              "y": 9.7292,
              "z": 5.6737
            }
          }
        ],
        "bonds": [
          {
            "atomIds": [
              1,
              3
            ],
            "bo": "SINGLE"
          },
          {
            "atomIds": [
              2,
              18
            ],
            "bo": "SINGLE"
          },
          {
            "atomIds": [
              3,
              0
            ],
            "bo": "SINGLE"
          },
          {
            "atomIds": [
              4,
              3
            ],
            "bo": "DOUBLE"
          },
          {
            "atomIds": [
              5,
              4
            ],
            "bo": "SINGLE"
          },
          {
            "atomIds": [
              5,
              14
            ],
            "bo": "DOUBLE"
          },
          {
            "atomIds": [
              6,
              5
            ],
            "bo": "SINGLE"
          },
          {
            "atomIds": [
              7,
              6
            ],
            "bo": "SINGLE"
          },
          {
            "atomIds": [
              8,
              6
            ],
            "bo": "DOUBLE"
          },
          {
            "atomIds": [
              9,
              8
            ],
            "bo": "SINGLE"
          },
          {
            "atomIds": [
              10,
              8
            ],
            "bo": "SINGLE"
          },
          {
            "atomIds": [
              11,
              10
            ],
            "bo": "SINGLE"
          },
          {
            "atomIds": [
              12,
              10
            ],
            "bo": "DOUBLE"
          },
          {
            "atomIds": [
              12,
              14
            ],
            "bo": "SINGLE"
          },
          {
            "atomIds": [
              13,
              12
            ],
            "bo": "SINGLE"
          },
          {
            "atomIds": [
              14,
              1
            ],
            "bo": "SINGLE"
          },
          {
            "atomIds": [
              15,
              4
            ],
            "bo": "SINGLE"
          },
          {
            "atomIds": [
              16,
              15
            ],
            "bo": "SINGLE"
          },
          {
            "atomIds": [
              17,
              15
            ],
            "bo": "SINGLE"
          },
          {
            "atomIds": [
              18,
              0
            ],
            "bo": "SINGLE"
          },
          {
            "atomIds": [
              18,
              19
            ],
            "bo": "DOUBLE"
          },
          {
            "atomIds": [
              19,
              15
            ],
            "bo": "SINGLE"
          },
          {
            "atomIds": [
              20,
              19
            ],
            "bo": "SINGLE"
          },
          {
            "atomIds": [
              20,
              29
            ],
            "bo": "DOUBLE"
          },
          {
            "atomIds": [
              21,
              20
            ],
            "bo": "SINGLE"
          },
          {
            "atomIds": [
              22,
              21
            ],
            "bo": "SINGLE"
          },
          {
            "atomIds": [
              23,
              21
            ],
            "bo": "DOUBLE"
          },
          {
            "atomIds": [
              24,
              23
            ],
            "bo": "SINGLE"
          },
          {
            "atomIds": [
              25,
              23
            ],
            "bo": "SINGLE"
          },
          {
            "atomIds": [
              26,
              25
            ],
            "bo": "SINGLE"
          },
          {
            "atomIds": [
              27,
              25
            ],
            "bo": "DOUBLE"
          },
          {
            "atomIds": [
              27,
              29
            ],
            "bo": "SINGLE"
          },
          {
            "atomIds": [
              28,
              27
            ],
            "bo": "SINGLE"
          },
          {
            "atomIds": [
              29,
              2
            ],
            "bo": "SINGLE"
          },
          {
            "atomIds": [
              30,
              2
            ],
            "bo": "SINGLE"
          },
          {
            "atomIds": [
              31,
              1
            ],
            "bo": "SINGLE"
          }
        ]
      },
      "vertexId": 106,
      "buildingBlockId": 43,
      "buildingBlockType": "FRAGMENT",
      "isRCV": false,
      "properties": {
        "ATTACHMENT_POINTS": "1#LPhosphineSubM:0:SINGLE:9.6921%11.1939%8.6295,MPhosphine:1:SINGLE:6.9761%12.5800%7.2794 "
      },
      "uniquefyingPropertyKeys": [],
      "allowedMutationTypes": [
        "DELETE",
        "EXTEND",
        "CHANGEBRANCH",
        "CHANGELINK",
        "ADDLINK",
        "DELETELINK",
        "DELETECHAIN"
      ],
      "vertexType": "MolecularFragment"
    },
    {
      "lstAPs": [
        {
          "id": 271884,
          "atomPositionNumber": 0,
          "atomPositionNumberInMol": 47,
          "apClass": {
            "rule": "Xlig",
            "subClass": 1,
            "bndTyp": "SINGLE"
          },
          "dirVec": {
            "x": 0.0192,
            "y": -0.0048,
            "z": -0.5645
          }
        }
      ],
      "lstSymAPs": [],
      "mol": {
        "atoms": [
          {
            "elSymbol": "C",
            "p3d": {
              "x": -1.967,
              "y": -0.0075,
              "z": -0.4937
            }
          },
          {
            "elSymbol": "N",
            "p3d": {
              "x": -3.1263,
              "y": -0.0054,
              "z": -0.4354
            }
          },
          {
            "elSymbol": "Du",
            "p3d": {
              "x": -1.9744,
              "y": 0.9926,
              "z": -0.5036
            }
          }
        ],
        "bonds": [
          {
            "atomIds": [
              0,
              1
            ],
            "bo": "TRIPLE"
          },
          {
            "atomIds": [
              2,
              0
            ],
            "bo": "SINGLE"
          }
        ]
      },
      "vertexId": 87,
      "buildingBlockId": 65,
      "buildingBlockType": "FRAGMENT",
      "isRCV": false,
      "properties": {
        "ATTACHMENT_POINTS": "1#Xlig:1:SINGLE:0.0192%-0.0048%-0.5645 "
      },
      "uniquefyingPropertyKeys": [],
      "allowedMutationTypes": [
        "DELETE",
        "EXTEND",
        "CHANGEBRANCH",
        "CHANGELINK",
        "ADDLINK",
        "DELETELINK",
        "DELETECHAIN"
      ],
      "vertexType": "MolecularFragment"
    },
    {
      "lstAPs": [
        {
          "id": 271901,
          "atomPositionNumber": 1,
          "atomPositionNumberInMol": 41,
          "apClass": {
            "rule": "SubRS",
            "subClass": 1,
            "bndTyp": "SINGLE"
          },
          "dirVec": {
            "x": 0.2985,
            "y": 0.384,
            "z": -0.6258
          }
        }
      ],
      "lstSymAPs": [],
      "mol": {
        "atoms": [
          {
            "elSymbol": "C",
            "p3d": {
              "x": -1.0244,
              "y": -0.2225,
              "z": 1.3991
            }
          },
          {
            "elSymbol": "C",
            "p3d": {
              "x": 0.3973,
              "y": -0.042,
              "z": 0.8195
            }
          },
          {
            "elSymbol": "H",
            "p3d": {
              "x": -1.5635,
              "y": -0.9908,
              "z": 0.8263
            }
          },
          {
            "elSymbol": "H",
            "p3d": {
              "x": -0.941,
              "y": -0.535,
              "z": 2.446
            }
          },
          {
            "elSymbol": "H",
            "p3d": {
              "x": -1.5586,
              "y": 0.7335,
              "z": 1.3382
            }
          },
          {
            "elSymbol": "H",
            "p3d": {
              "x": 0.9335,
              "y": 0.7221,
              "z": 1.4011
            }
          },
          {
            "elSymbol": "H",
            "p3d": {
              "x": 0.927,
              "y": -1.0102,
              "z": 0.9001
            }
          }
        ],
        "bonds": [
          {
            "atomIds": [
              0,
              1
            ],
            "bo": "SINGLE"
          },
          {
            "atomIds": [
              0,
              2
            ],
            "bo": "SINGLE"
          },
          {
            "atomIds": [
              0,
              3
            ],
            "bo": "SINGLE"
          },
          {
            "atomIds": [
              0,
              4
            ],
            "bo": "SINGLE"
          },
          {
            "atomIds": [
              1,
              5
            ],
            "bo": "SINGLE"
          },
          {
            "atomIds": [
              1,
              6
            ],
            "bo": "SINGLE"
          }
        ]
      },
      "vertexId": 208110,
      "buildingBlockId": 31,
      "buildingBlockType": "FRAGMENT",
      "isRCV": false,
      "properties": {
        "ATTACHMENT_POINTS": "2#SubRS:1:SINGLE:0.2985%0.3840%-0.6258 "
      },
      "uniquefyingPropertyKeys": [],
      "allowedMutationTypes": [
        "DELETE",
        "EXTEND",
        "CHANGEBRANCH",
        "CHANGELINK",
        "ADDLINK",
        "DELETELINK",
        "DELETECHAIN"
      ],
      "vertexType": "MolecularFragment"
    }
  ],
  "gEdges": [
    {
      "srcAPID": 271878,
      "trgAPID": 271881,
      "bondType": "SINGLE"
    },
    {
      "srcAPID": 271880,
      "trgAPID": 271883,
      "bondType": "SINGLE"
    },
    {
      "srcAPID": 271879,
      "trgAPID": 271884,
      "bondType": "SINGLE"
    },
    {
      "srcAPID": 271882,
      "trgAPID": 271901,
      "bondType": "SINGLE"
    }
  ],
  "gRings": [],
  "symVertices": []
}

> <SMILES>
[Pt](C#O)(C#N)([P]1(C=2N(C3=C(C2C([H])([H])C4=C1N(C5=C4C([H])=C([H])C([H])=C5[H])[H])C([H])=C([H])C([H])=C3[H])[H])C(C([H])([H])[H])([H])[H])C#N

$$$$
