M00001763
  CDK     04222209183D

 51 53  0  0  0  0  0  0  0  0999 V2000
   -2.4002   -0.2816   -0.0697 Pt  0  0  0  0  0  0  0  0  0  0  0  0
   -4.3044   -0.6572    0.1797 C   0  0  0  0  0  0  0  0  0  0  0  0
   -5.4072   -0.9179    0.3378 O   0  0  0  0  0  0  0  0  0  0  0  0
   -2.0422    1.7451   -0.1539 O   0  0  0  0  0  0  0  0  0  0  0  0
   -3.2079    2.5098    0.0451 C   0  0  0  0  0  0  0  0  0  0  0  0
   -2.8889    3.5612    0.0395 H   0  0  0  0  0  0  0  0  0  0  0  0
   -3.6570    2.2588    1.0139 H   0  0  0  0  0  0  0  0  0  0  0  0
   -3.9132    2.3248   -0.7749 H   0  0  0  0  0  0  0  0  0  0  0  0
   -0.1485   -0.0211   -0.2695 P   0  0  0  0  0  0  0  0  0  0  0  0
    0.6918   -1.6288   -0.6915 C   0  0  0  0  0  0  0  0  0  0  0  0
    1.8330   -4.0664   -1.4018 C   0  0  0  0  0  0  0  0  0  0  0  0
    0.0651   -2.4247   -1.6519 C   0  0  0  0  0  0  0  0  0  0  0  0
    1.8766   -2.0361   -0.0796 C   0  0  0  0  0  0  0  0  0  0  0  0
    2.4501   -3.2605   -0.4380 C   0  0  0  0  0  0  0  0  0  0  0  0
    0.6447   -3.6506   -2.0077 C   0  0  0  0  0  0  0  0  0  0  0  0
   -0.8735   -2.1276   -2.1336 H   0  0  0  0  0  0  0  0  0  0  0  0
    2.3698   -1.4228    0.6847 H   0  0  0  0  0  0  0  0  0  0  0  0
    3.3727   -3.5894    0.0353 H   0  0  0  0  0  0  0  0  0  0  0  0
    0.1579   -4.2829   -2.7489 H   0  0  0  0  0  0  0  0  0  0  0  0
    2.2787   -5.0219   -1.6768 H   0  0  0  0  0  0  0  0  0  0  0  0
    0.3400    0.4442    1.3213 N   0  0  0  0  0  0  0  0  0  0  0  0
    1.7067    0.7824    1.7886 C   0  0  0  0  0  0  0  0  0  0  0  0
    2.0542    1.7373    1.3360 H   0  0  0  0  0  0  0  0  0  0  0  0
    2.4309   -0.0164    1.4990 H   0  0  0  0  0  0  0  0  0  0  0  0
    1.5903    0.9047    3.3212 C   0  0  0  0  0  0  0  0  0  0  0  0
    2.0069    0.0102    3.8160 H   0  0  0  0  0  0  0  0  0  0  0  0
    2.1608    1.7695    3.6972 H   0  0  0  0  0  0  0  0  0  0  0  0
    0.0897    1.0469    3.6435 C   0  0  0  0  0  0  0  0  0  0  0  0
   -0.1551    2.0973    3.8816 H   0  0  0  0  0  0  0  0  0  0  0  0
   -0.1844    0.4511    4.5292 H   0  0  0  0  0  0  0  0  0  0  0  0
   -0.6856    0.5846    2.3943 C   0  0  0  0  0  0  0  0  0  0  0  0
   -1.1979   -0.3989    2.5691 H   0  0  0  0  0  0  0  0  0  0  0  0
   -1.4664    1.3305    2.1033 H   0  0  0  0  0  0  0  0  0  0  0  0
    0.4970    1.0437   -1.4530 N   0  0  0  0  0  0  0  0  0  0  0  0
    1.7478    0.7765   -2.2159 C   0  0  0  0  0  0  0  0  0  0  0  0
    1.5814   -0.0377   -2.9567 H   0  0  0  0  0  0  0  0  0  0  0  0
    2.5767    0.4598   -1.5493 H   0  0  0  0  0  0  0  0  0  0  0  0
    2.0796    2.1042   -2.9252 C   0  0  0  0  0  0  0  0  0  0  0  0
    2.8915    2.6349   -2.3982 H   0  0  0  0  0  0  0  0  0  0  0  0
    2.4313    1.9299   -3.9551 H   0  0  0  0  0  0  0  0  0  0  0  0
    0.7898    2.9452   -2.9102 C   0  0  0  0  0  0  0  0  0  0  0  0
    0.2875    2.9008   -3.8925 H   0  0  0  0  0  0  0  0  0  0  0  0
    1.0087    4.0079   -2.7173 H   0  0  0  0  0  0  0  0  0  0  0  0
   -0.1165    2.3548   -1.8129 C   0  0  0  0  0  0  0  0  0  0  0  0
   -0.1716    3.0176   -0.9201 H   0  0  0  0  0  0  0  0  0  0  0  0
   -1.1611    2.2099   -2.1724 H   0  0  0  0  0  0  0  0  0  0  0  0
   -2.7168   -2.5729    0.0467 S   0  0  0  0  0  0  0  0  0  0  0  0
   -1.9494   -2.8377    1.6701 C   0  0  0  0  0  0  0  0  0  0  0  0
   -2.5878   -3.4876    2.2773 H   0  0  0  0  0  0  0  0  0  0  0  0
   -1.8026   -1.8832    2.2024 H   0  0  0  0  0  0  0  0  0  0  0  0
   -0.9730   -3.3198    1.5435 H   0  0  0  0  0  0  0  0  0  0  0  0
  2  3  3  0  0  0  0
  1  2  1  0  0  0  0
  5  6  1  0  0  0  0
  5  7  1  0  0  0  0
  5  8  1  0  0  0  0
  4  5  1  0  0  0  0
  1  4  1  0  0  0  0
  1  9  1  0  0  0  0
 10 13  1  0  0  0  0
 13 14  2  0  0  0  0
 11 14  1  0  0  0  0
 11 15  2  0  0  0  0
 12 15  1  0  0  0  0
 10 12  2  0  0  0  0
 14 18  1  0  0  0  0
 15 19  1  0  0  0  0
 11 20  1  0  0  0  0
 12 16  1  0  0  0  0
 13 17  1  0  0  0  0
  9 10  1  0  0  0  0
 22 21  1  0  0  0  0
 23 22  1  0  0  0  0
 24 22  1  0  0  0  0
 25 22  1  0  0  0  0
 26 25  1  0  0  0  0
 27 25  1  0  0  0  0
 28 25  1  0  0  0  0
 29 28  1  0  0  0  0
 30 28  1  0  0  0  0
 31 21  1  0  0  0  0
 32 31  1  0  0  0  0
 33 31  1  0  0  0  0
 28 31  1  0  0  0  0
  9 21  1  0  0  0  0
 35 34  1  0  0  0  0
 36 35  1  0  0  0  0
 37 35  1  0  0  0  0
 38 35  1  0  0  0  0
 39 38  1  0  0  0  0
 40 38  1  0  0  0  0
 41 38  1  0  0  0  0
 42 41  1  0  0  0  0
 43 41  1  0  0  0  0
 44 34  1  0  0  0  0
 45 44  1  0  0  0  0
 46 44  1  0  0  0  0
 41 44  1  0  0  0  0
  9 34  1  0  0  0  0
 48 49  1  0  0  0  0
 48 50  1  0  0  0  0
 48 51  1  0  0  0  0
 47 48  1  0  0  0  0
  1 47  1  0  0  0  0
M  END
> <PM6_ENERGY>
-227.561

> <UID>
ZQRVZTWFXMWMBM-FHSSSCOLNA-M

> <FITNESS>
1.14417

> <GCODE>
2374

> <GraphENC>
2374 72_1_0,80_65_1,100_3_1,85_64_1,44354_36_1,44341_7_1,44422_7_1, 72_0_80_0_SINGLE_Xlig:0_Xlig:1,72_2_100_3_SINGLE_scaff:0_MBisAminoPhosphine:1,72_1_85_0_SINGLE_Xlig:0_Xlig:1,100_2_44354_0_SINGLE_LBisAminoPhosphineSubR:0_SubArS:1,100_0_44341_0_SINGLE_LBisAminoPhosphineN:0_LAminoPhosphineCycloN:1,100_1_44422_0_SINGLE_LBisAminoPhosphineN:0_LAminoPhosphineCycloN:1, SymmetricSet [symIds=[44341, 44422]] 

> <GraphJson>
{
  "graphId": 2374,
  "gVertices": [
    {
      "lstAPs": [
        {
          "id": 59304,
          "atomPositionNumber": 0,
          "atomPositionNumberInMol": 0,
          "apClass": {
            "rule": "Xlig",
            "subClass": 0,
            "bndTyp": "SINGLE"
          },
          "dirVec": {
            "x": -2.3339,
            "y": -0.0087,
            "z": 0.8172
          }
        },
        {
          "id": 59305,
          "atomPositionNumber": 0,
          "atomPositionNumberInMol": 0,
          "apClass": {
            "rule": "Xlig",
            "subClass": 0,
            "bndTyp": "SINGLE"
          },
          "dirVec": {
            "x": 2.336,
            "y": -5.0E-4,
            "z": 0.829
          }
        },
        {
          "id": 59306,
          "atomPositionNumber": 0,
          "atomPositionNumberInMol": 0,
          "apClass": {
            "rule": "scaff",
            "subClass": 0,
            "bndTyp": "SINGLE"
          },
          "dirVec": {
            "x": -0.0095,
            "y": 0.0046,
            "z": -1.7113
          }
        }
      ],
      "lstSymAPs": [
        {
          "symIds": [
            0,
            1
          ]
        }
      ],
      "mol": {
        "atoms": [
          {
            "elSymbol": "Pt",
            "p3d": {
              "x": -0.0098,
              "y": 0.0049,
              "z": 0.6289
            }
          },
          {
            "elSymbol": "C",
            "p3d": {
              "x": -6.0E-4,
              "y": 0.0016,
              "z": 2.5609
            }
          },
          {
            "elSymbol": "O",
            "p3d": {
              "x": 0.0025,
              "y": -0.0041,
              "z": 3.6974
            }
          },
          {
            "elSymbol": "Du",
            "p3d": {
              "x": -0.007,
              "y": 1.0013,
              "z": 0.6372
            }
          },
          {
            "elSymbol": "Du",
            "p3d": {
              "x": -0.0014,
              "y": 0.9902,
              "z": 2.5698
            }
          }
        ],
        "bonds": [
          {
            "atomIds": [
              1,
              2
            ],
            "bo": "TRIPLE"
          },
          {
            "atomIds": [
              0,
              1
            ],
            "bo": "SINGLE"
          },
          {
            "atomIds": [
              3,
              0
            ],
            "bo": "SINGLE"
          },
          {
            "atomIds": [
              4,
              1
            ],
            "bo": "SINGLE"
          }
        ]
      },
      "vertexId": 72,
      "buildingBlockId": 0,
      "buildingBlockType": "SCAFFOLD",
      "isRCV": false,
      "properties": {
        "ATTACHMENT_POINTS": "1#Xlig:0:SINGLE:-2.3339%-0.0087%0.8172,Xlig:0:SINGLE:2.3360%-0.0005%0.8290,scaff:0:SINGLE:-0.0095%0.0046%-1.7113 "
      },
      "uniquefyingPropertyKeys": [],
      "allowedMutationTypes": [
        "DELETE",
        "EXTEND",
        "CHANGEBRANCH",
        "CHANGELINK",
        "ADDLINK",
        "DELETELINK",
        "DELETECHAIN"
      ],
      "vertexType": "MolecularFragment"
    },
    {
      "lstAPs": [
        {
          "id": 59307,
          "atomPositionNumber": 0,
          "atomPositionNumberInMol": 5,
          "apClass": {
            "rule": "Xlig",
            "subClass": 1,
            "bndTyp": "SINGLE"
          },
          "dirVec": {
            "x": -0.1753,
            "y": 0.0948,
            "z": -0.4464
          }
        }
      ],
      "lstSymAPs": [],
      "mol": {
        "atoms": [
          {
            "elSymbol": "O",
            "p3d": {
              "x": -0.3534,
              "y": 2.1044,
              "z": -0.7339
            }
          },
          {
            "elSymbol": "C",
            "p3d": {
              "x": -0.5345,
              "y": 2.7646,
              "z": 0.4801
            }
          },
          {
            "elSymbol": "H",
            "p3d": {
              "x": -0.3728,
              "y": 3.8337,
              "z": 0.2724
            }
          },
          {
            "elSymbol": "H",
            "p3d": {
              "x": 0.1816,
              "y": 2.4161,
              "z": 1.2384
            }
          },
          {
            "elSymbol": "H",
            "p3d": {
              "x": -1.553,
              "y": 2.6149,
              "z": 0.8489
            }
          }
        ],
        "bonds": [
          {
            "atomIds": [
              1,
              2
            ],
            "bo": "SINGLE"
          },
          {
            "atomIds": [
              1,
              3
            ],
            "bo": "SINGLE"
          },
          {
            "atomIds": [
              1,
              4
            ],
            "bo": "SINGLE"
          },
          {
            "atomIds": [
              0,
              1
            ],
            "bo": "SINGLE"
          }
        ]
      },
      "vertexId": 80,
      "buildingBlockId": 64,
      "buildingBlockType": "FRAGMENT",
      "isRCV": false,
      "properties": {
        "ATTACHMENT_POINTS": "1#Xlig:1:SINGLE:-0.1753%0.0948%-0.4464 "
      },
      "uniquefyingPropertyKeys": [],
      "allowedMutationTypes": [
        "DELETE",
        "EXTEND",
        "CHANGEBRANCH",
        "CHANGELINK",
        "ADDLINK",
        "DELETELINK",
        "DELETECHAIN"
      ],
      "vertexType": "MolecularFragment"
    },
    {
      "lstAPs": [
        {
          "id": 59308,
          "atomPositionNumber": 0,
          "atomPositionNumberInMol": 10,
          "apClass": {
            "rule": "LBisAminoPhosphineN",
            "subClass": 0,
            "bndTyp": "SINGLE"
          },
          "dirVec": {
            "x": -1.9272,
            "y": -0.2351,
            "z": 5.6045
          }
        },
        {
          "id": 59309,
          "atomPositionNumber": 0,
          "atomPositionNumberInMol": 10,
          "apClass": {
            "rule": "LBisAminoPhosphineN",
            "subClass": 0,
            "bndTyp": "SINGLE"
          },
          "dirVec": {
            "x": -1.4136,
            "y": -2.2231,
            "z": 3.8983
          }
        },
        {
          "id": 59310,
          "atomPositionNumber": 0,
          "atomPositionNumberInMol": 10,
          "apClass": {
            "rule": "LBisAminoPhosphineSubR",
            "subClass": 0,
            "bndTyp": "SINGLE"
          },
          "dirVec": {
            "x": -3.1852,
            "y": -0.3594,
            "z": 3.1924
          }
        },
        {
          "id": 59311,
          "atomPositionNumber": 0,
          "atomPositionNumberInMol": 10,
          "apClass": {
            "rule": "MBisAminoPhosphine",
            "subClass": 1,
            "bndTyp": "SINGLE"
          },
          "dirVec": {
            "x": 0.1796,
            "y": 0.6567,
            "z": 3.3484
          }
        }
      ],
      "lstSymAPs": [
        {
          "symIds": [
            0,
            1
          ]
        }
      ],
      "mol": {
        "atoms": [
          {
            "elSymbol": "P",
            "p3d": {
              "x": -1.6038,
              "y": -0.5663,
              "z": 4.0324
            }
          }
        ],
        "bonds": []
      },
      "vertexId": 100,
      "buildingBlockId": 2,
      "buildingBlockType": "FRAGMENT",
      "isRCV": false,
      "properties": {
        "ATTACHMENT_POINTS": "1#LBisAminoPhosphineN:0:SINGLE:-1.9272%-0.2351%5.6045,LBisAminoPhosphineN:0:SINGLE:-1.4136%-2.2231%3.8983,LBisAminoPhosphineSubR:0:SINGLE:-3.1852%-0.3594%3.1924,MBisAminoPhosphine:1:SINGLE:0.1796%0.6567%3.3484 "
      },
      "uniquefyingPropertyKeys": [],
      "allowedMutationTypes": [
        "DELETE",
        "EXTEND",
        "CHANGEBRANCH",
        "CHANGELINK",
        "ADDLINK",
        "DELETELINK",
        "DELETECHAIN"
      ],
      "vertexType": "MolecularFragment"
    },
    {
      "lstAPs": [
        {
          "id": 59312,
          "atomPositionNumber": 0,
          "atomPositionNumberInMol": 48,
          "apClass": {
            "rule": "Xlig",
            "subClass": 1,
            "bndTyp": "SINGLE"
          },
          "dirVec": {
            "x": -0.102,
            "y": 0.0185,
            "z": -1.0265
          }
        }
      ],
      "lstSymAPs": [],
      "mol": {
        "atoms": [
          {
            "elSymbol": "S",
            "p3d": {
              "x": -0.3267,
              "y": 2.3403,
              "z": -1.0022
            }
          },
          {
            "elSymbol": "C",
            "p3d": {
              "x": -0.626,
              "y": 2.4866,
              "z": 0.7805
            }
          },
          {
            "elSymbol": "H",
            "p3d": {
              "x": 0.1766,
              "y": 3.089,
              "z": 1.2414
            }
          },
          {
            "elSymbol": "H",
            "p3d": {
              "x": -0.651,
              "y": 1.5065,
              "z": 1.2643
            }
          },
          {
            "elSymbol": "H",
            "p3d": {
              "x": -1.5658,
              "y": 2.981,
              "z": 0.9515
            }
          }
        ],
        "bonds": [
          {
            "atomIds": [
              1,
              2
            ],
            "bo": "SINGLE"
          },
          {
            "atomIds": [
              1,
              3
            ],
            "bo": "SINGLE"
          },
          {
            "atomIds": [
              1,
              4
            ],
            "bo": "SINGLE"
          },
          {
            "atomIds": [
              0,
              1
            ],
            "bo": "SINGLE"
          }
        ]
      },
      "vertexId": 85,
      "buildingBlockId": 63,
      "buildingBlockType": "FRAGMENT",
      "isRCV": false,
      "properties": {
        "ATTACHMENT_POINTS": "1#Xlig:1:SINGLE:-0.1020%0.0185%-1.0265 "
      },
      "uniquefyingPropertyKeys": [],
      "allowedMutationTypes": [
        "DELETE",
        "EXTEND",
        "CHANGEBRANCH",
        "CHANGELINK",
        "ADDLINK",
        "DELETELINK",
        "DELETECHAIN"
      ],
      "vertexType": "MolecularFragment"
    },
    {
      "lstAPs": [
        {
          "id": 59349,
          "atomPositionNumber": 0,
          "atomPositionNumberInMol": 11,
          "apClass": {
            "rule": "SubArS",
            "subClass": 1,
            "bndTyp": "SINGLE"
          },
          "dirVec": {
            "x": 0.2973,
            "y": 0.3873,
            "z": -0.6389
          }
        }
      ],
      "lstSymAPs": [],
      "mol": {
        "atoms": [
          {
            "elSymbol": "C",
            "p3d": {
              "x": 1.6995,
              "y": 0.5593,
              "z": -1.2083
            }
          },
          {
            "elSymbol": "C",
            "p3d": {
              "x": 4.2563,
              "y": 0.8754,
              "z": -2.2592
            }
          },
          {
            "elSymbol": "C",
            "p3d": {
              "x": 2.3334,
              "y": 1.79,
              "z": -1.1338
            }
          },
          {
            "elSymbol": "C",
            "p3d": {
              "x": 2.3422,
              "y": -0.5107,
              "z": -1.8125
            }
          },
          {
            "elSymbol": "C",
            "p3d": {
              "x": 3.612,
              "y": -0.3527,
              "z": -2.3321
            }
          },
          {
            "elSymbol": "C",
            "p3d": {
              "x": 3.6062,
              "y": 1.9513,
              "z": -1.6526
            }
          },
          {
            "elSymbol": "H",
            "p3d": {
              "x": 1.833,
              "y": 2.6461,
              "z": -0.6488
            }
          },
          {
            "elSymbol": "H",
            "p3d": {
              "x": 1.8361,
              "y": -1.4773,
              "z": -1.887
            }
          },
          {
            "elSymbol": "H",
            "p3d": {
              "x": 4.115,
              "y": -1.2043,
              "z": -2.8152
            }
          },
          {
            "elSymbol": "H",
            "p3d": {
              "x": 4.1097,
              "y": 2.9214,
              "z": -1.5842
            }
          },
          {
            "elSymbol": "H",
            "p3d": {
              "x": 5.2498,
              "y": 0.9926,
              "z": -2.665
            }
          }
        ],
        "bonds": [
          {
            "atomIds": [
              0,
              3
            ],
            "bo": "SINGLE"
          },
          {
            "atomIds": [
              3,
              4
            ],
            "bo": "DOUBLE"
          },
          {
            "atomIds": [
              1,
              4
            ],
            "bo": "SINGLE"
          },
          {
            "atomIds": [
              1,
              5
            ],
            "bo": "DOUBLE"
          },
          {
            "atomIds": [
              2,
              5
            ],
            "bo": "SINGLE"
          },
          {
            "atomIds": [
              0,
              2
            ],
            "bo": "DOUBLE"
          },
          {
            "atomIds": [
              4,
              8
            ],
            "bo": "SINGLE"
          },
          {
            "atomIds": [
              5,
              9
            ],
            "bo": "SINGLE"
          },
          {
            "atomIds": [
              1,
              10
            ],
            "bo": "SINGLE"
          },
          {
            "atomIds": [
              2,
              6
            ],
            "bo": "SINGLE"
          },
          {
            "atomIds": [
              3,
              7
            ],
            "bo": "SINGLE"
          }
        ]
      },
      "vertexId": 44354,
      "buildingBlockId": 35,
      "buildingBlockType": "FRAGMENT",
      "isRCV": false,
      "properties": {
        "ATTACHMENT_POINTS": "1#SubArS:1:SINGLE:0.2973%0.3873%-0.6389 "
      },
      "uniquefyingPropertyKeys": [],
      "allowedMutationTypes": [
        "DELETE",
        "EXTEND",
        "CHANGEBRANCH",
        "CHANGELINK",
        "ADDLINK",
        "DELETELINK",
        "DELETECHAIN"
      ],
      "vertexType": "MolecularFragment"
    },
    {
      "lstAPs": [
        {
          "id": 59350,
          "atomPositionNumber": 0,
          "atomPositionNumberInMol": 22,
          "apClass": {
            "rule": "LAminoPhosphineCycloN",
            "subClass": 1,
            "bndTyp": "SINGLE"
          },
          "dirVec": {
            "x": -1.0842,
            "y": 2.354,
            "z": 2.6746
          }
        }
      ],
      "lstSymAPs": [],
      "mol": {
        "atoms": [
          {
            "elSymbol": "N",
            "p3d": {
              "x": -2.0922,
              "y": 2.0012,
              "z": 1.4169
            }
          },
          {
            "elSymbol": "C",
            "p3d": {
              "x": -3.1902,
              "y": 2.8736,
              "z": 0.9976
            }
          },
          {
            "elSymbol": "H",
            "p3d": {
              "x": -2.8134,
              "y": 3.8695,
              "z": 0.7407
            }
          },
          {
            "elSymbol": "H",
            "p3d": {
              "x": -3.9276,
              "y": 2.975,
              "z": 1.7817
            }
          },
          {
            "elSymbol": "C",
            "p3d": {
              "x": -3.7598,
              "y": 2.1938,
              "z": -0.2148
            }
          },
          {
            "elSymbol": "H",
            "p3d": {
              "x": -4.5232,
              "y": 1.4545,
              "z": 0.0879
            }
          },
          {
            "elSymbol": "H",
            "p3d": {
              "x": -4.218,
              "y": 2.9166,
              "z": -0.8771
            }
          },
          {
            "elSymbol": "C",
            "p3d": {
              "x": -2.6022,
              "y": 1.5522,
              "z": -0.816
            }
          },
          {
            "elSymbol": "H",
            "p3d": {
              "x": -2.0593,
              "y": 2.2535,
              "z": -1.4546
            }
          },
          {
            "elSymbol": "H",
            "p3d": {
              "x": -2.9084,
              "y": 0.6969,
              "z": -1.4358
            }
          },
          {
            "elSymbol": "C",
            "p3d": {
              "x": -1.7245,
              "y": 1.0767,
              "z": 0.3024
            }
          },
          {
            "elSymbol": "H",
            "p3d": {
              "x": -1.937,
              "y": 0.0454,
              "z": 0.5649
            }
          },
          {
            "elSymbol": "H",
            "p3d": {
              "x": -0.6676,
              "y": 1.1814,
              "z": 0.0388
            }
          }
        ],
        "bonds": [
          {
            "atomIds": [
              1,
              0
            ],
            "bo": "SINGLE"
          },
          {
            "atomIds": [
              2,
              1
            ],
            "bo": "SINGLE"
          },
          {
            "atomIds": [
              3,
              1
            ],
            "bo": "SINGLE"
          },
          {
            "atomIds": [
              4,
              1
            ],
            "bo": "SINGLE"
          },
          {
            "atomIds": [
              5,
              4
            ],
            "bo": "SINGLE"
          },
          {
            "atomIds": [
              6,
              4
            ],
            "bo": "SINGLE"
          },
          {
            "atomIds": [
              7,
              4
            ],
            "bo": "SINGLE"
          },
          {
            "atomIds": [
              8,
              7
            ],
            "bo": "SINGLE"
          },
          {
            "atomIds": [
              9,
              7
            ],
            "bo": "SINGLE"
          },
          {
            "atomIds": [
              10,
              0
            ],
            "bo": "SINGLE"
          },
          {
            "atomIds": [
              11,
              10
            ],
            "bo": "SINGLE"
          },
          {
            "atomIds": [
              12,
              10
            ],
            "bo": "SINGLE"
          },
          {
            "atomIds": [
              7,
              10
            ],
            "bo": "SINGLE"
          }
        ]
      },
      "vertexId": 44341,
      "buildingBlockId": 6,
      "buildingBlockType": "FRAGMENT",
      "isRCV": false,
      "properties": {
        "ATTACHMENT_POINTS": "1#LAminoPhosphineCycloN:1:SINGLE:-1.0842%2.3540%2.6746 "
      },
      "uniquefyingPropertyKeys": [],
      "allowedMutationTypes": [
        "DELETE",
        "EXTEND",
        "CHANGEBRANCH",
        "CHANGELINK",
        "ADDLINK",
        "DELETELINK",
        "DELETECHAIN"
      ],
      "vertexType": "MolecularFragment"
    },
    {
      "lstAPs": [
        {
          "id": 59351,
          "atomPositionNumber": 0,
          "atomPositionNumberInMol": 35,
          "apClass": {
            "rule": "LAminoPhosphineCycloN",
            "subClass": 1,
            "bndTyp": "SINGLE"
          },
          "dirVec": {
            "x": -1.0842,
            "y": 2.354,
            "z": 2.6746
          }
        }
      ],
      "lstSymAPs": [],
      "mol": {
        "atoms": [
          {
            "elSymbol": "N",
            "p3d": {
              "x": -2.0922,
              "y": 2.0012,
              "z": 1.4169
            }
          },
          {
            "elSymbol": "C",
            "p3d": {
              "x": -3.1902,
              "y": 2.8736,
              "z": 0.9976
            }
          },
          {
            "elSymbol": "H",
            "p3d": {
              "x": -2.8134,
              "y": 3.8695,
              "z": 0.7407
            }
          },
          {
            "elSymbol": "H",
            "p3d": {
              "x": -3.9276,
              "y": 2.975,
              "z": 1.7817
            }
          },
          {
            "elSymbol": "C",
            "p3d": {
              "x": -3.7598,
              "y": 2.1938,
              "z": -0.2148
            }
          },
          {
            "elSymbol": "H",
            "p3d": {
              "x": -4.5232,
              "y": 1.4545,
              "z": 0.0879
            }
          },
          {
            "elSymbol": "H",
            "p3d": {
              "x": -4.218,
              "y": 2.9166,
              "z": -0.8771
            }
          },
          {
            "elSymbol": "C",
            "p3d": {
              "x": -2.6022,
              "y": 1.5522,
              "z": -0.816
            }
          },
          {
            "elSymbol": "H",
            "p3d": {
              "x": -2.0593,
              "y": 2.2535,
              "z": -1.4546
            }
          },
          {
            "elSymbol": "H",
            "p3d": {
              "x": -2.9084,
              "y": 0.6969,
              "z": -1.4358
            }
          },
          {
            "elSymbol": "C",
            "p3d": {
              "x": -1.7245,
              "y": 1.0767,
              "z": 0.3024
            }
          },
          {
            "elSymbol": "H",
            "p3d": {
              "x": -1.937,
              "y": 0.0454,
              "z": 0.5649
            }
          },
          {
            "elSymbol": "H",
            "p3d": {
              "x": -0.6676,
              "y": 1.1814,
              "z": 0.0388
            }
          }
        ],
        "bonds": [
          {
            "atomIds": [
              1,
              0
            ],
            "bo": "SINGLE"
          },
          {
            "atomIds": [
              2,
              1
            ],
            "bo": "SINGLE"
          },
          {
            "atomIds": [
              3,
              1
            ],
            "bo": "SINGLE"
          },
          {
            "atomIds": [
              4,
              1
            ],
            "bo": "SINGLE"
          },
          {
            "atomIds": [
              5,
              4
            ],
            "bo": "SINGLE"
          },
          {
            "atomIds": [
              6,
              4
            ],
            "bo": "SINGLE"
          },
          {
            "atomIds": [
              7,
              4
            ],
            "bo": "SINGLE"
          },
          {
            "atomIds": [
              8,
              7
            ],
            "bo": "SINGLE"
          },
          {
            "atomIds": [
              9,
              7
            ],
            "bo": "SINGLE"
          },
          {
            "atomIds": [
              10,
              0
            ],
            "bo": "SINGLE"
          },
          {
            "atomIds": [
              11,
              10
            ],
            "bo": "SINGLE"
          },
          {
            "atomIds": [
              12,
              10
            ],
            "bo": "SINGLE"
          },
          {
            "atomIds": [
              7,
              10
            ],
            "bo": "SINGLE"
          }
        ]
      },
      "vertexId": 44422,
      "buildingBlockId": 6,
      "buildingBlockType": "FRAGMENT",
      "isRCV": false,
      "properties": {
        "ATTACHMENT_POINTS": "1#LAminoPhosphineCycloN:1:SINGLE:-1.0842%2.3540%2.6746 "
      },
      "uniquefyingPropertyKeys": [],
      "allowedMutationTypes": [
        "DELETE",
        "EXTEND",
        "CHANGEBRANCH",
        "CHANGELINK",
        "ADDLINK",
        "DELETELINK",
        "DELETECHAIN"
      ],
      "vertexType": "MolecularFragment"
    }
  ],
  "gEdges": [
    {
      "srcAPID": 59304,
      "trgAPID": 59307,
      "bondType": "SINGLE"
    },
    {
      "srcAPID": 59306,
      "trgAPID": 59311,
      "bondType": "SINGLE"
    },
    {
      "srcAPID": 59305,
      "trgAPID": 59312,
      "bondType": "SINGLE"
    },
    {
      "srcAPID": 59310,
      "trgAPID": 59349,
      "bondType": "SINGLE"
    },
    {
      "srcAPID": 59308,
      "trgAPID": 59350,
      "bondType": "SINGLE"
    },
    {
      "srcAPID": 59309,
      "trgAPID": 59351,
      "bondType": "SINGLE"
    }
  ],
  "gRings": [],
  "symVertices": [
    {
      "symIds": [
        44341,
        44422
      ]
    }
  ]
}

> <SMILES>
[Pt](C#O)(OC([H])([H])[H])([P](C=1C(=C(C(=C(C1[H])[H])[H])[H])[H])(N2C([H])([H])C([H])([H])C([H])([H])C2([H])[H])N3C([H])([H])C([H])([H])C([H])([H])C3([H])[H])SC([H])([H])[H]

$$$$
