M00018266
  CDK     04222215133D

 34 34  0  0  0  0  0  0  0  0999 V2000
   -2.9564   -0.5359   -0.2461 Pt  0  0  0  0  0  0  0  0  0  0  0  0
   -4.9130   -0.5670   -0.4086 C   0  0  0  0  0  0  0  0  0  0  0  0
   -6.0490   -0.5927   -0.4958 O   0  0  0  0  0  0  0  0  0  0  0  0
   -2.8476    1.2606   -1.0652 C   0  0  0  0  0  0  0  0  0  0  0  0
   -2.8085    2.3126   -1.5431 N   0  0  0  0  0  0  0  0  0  0  0  0
   -0.6812   -0.5073   -0.0933 P   0  0  0  0  0  0  0  0  0  0  0  0
    0.0295    1.0860   -0.0545 N   0  0  0  0  0  0  0  0  0  0  0  0
   -0.5881    1.9195   -0.1277 H   0  0  0  0  0  0  0  0  0  0  0  0
    1.4172    1.3611    0.0712 C   0  0  0  0  0  0  0  0  0  0  0  0
    4.1157    2.0883    0.3289 C   0  0  0  0  0  0  0  0  0  0  0  0
    2.4154    0.3709    0.0431 C   0  0  0  0  0  0  0  0  0  0  0  0
    1.7773    2.7235    0.2205 C   0  0  0  0  0  0  0  0  0  0  0  0
    3.1171    3.0724    0.3469 C   0  0  0  0  0  0  0  0  0  0  0  0
    3.7571    0.7505    0.1756 C   0  0  0  0  0  0  0  0  0  0  0  0
    2.1968   -0.6818   -0.0885 H   0  0  0  0  0  0  0  0  0  0  0  0
    1.0115    3.4973    0.2323 H   0  0  0  0  0  0  0  0  0  0  0  0
    3.3931    4.1220    0.4603 H   0  0  0  0  0  0  0  0  0  0  0  0
    4.5297   -0.0195    0.1552 H   0  0  0  0  0  0  0  0  0  0  0  0
    5.1606    2.3705    0.4305 H   0  0  0  0  0  0  0  0  0  0  0  0
   -1.2391   -2.0601   -2.2802 C   0  0  0  0  0  0  0  0  0  0  0  0
   -0.0359   -1.4186   -1.6068 C   0  0  0  0  0  0  0  0  0  0  0  0
   -1.7460   -2.8143   -1.6504 H   0  0  0  0  0  0  0  0  0  0  0  0
   -2.0017   -1.3288   -2.6069 H   0  0  0  0  0  0  0  0  0  0  0  0
   -0.9271   -2.5945   -3.1919 H   0  0  0  0  0  0  0  0  0  0  0  0
    0.7230   -2.1783   -1.3360 H   0  0  0  0  0  0  0  0  0  0  0  0
    0.4752   -0.7120   -2.2969 H   0  0  0  0  0  0  0  0  0  0  0  0
   -0.9343   -0.8412    2.6257 C   0  0  0  0  0  0  0  0  0  0  0  0
   -0.1578   -1.4250    1.4569 C   0  0  0  0  0  0  0  0  0  0  0  0
   -0.6786    0.2054    2.8423 H   0  0  0  0  0  0  0  0  0  0  0  0
   -2.0300   -0.9126    2.4952 H   0  0  0  0  0  0  0  0  0  0  0  0
   -0.7145   -1.4045    3.5471 H   0  0  0  0  0  0  0  0  0  0  0  0
    0.9344   -1.3594    1.6299 H   0  0  0  0  0  0  0  0  0  0  0  0
   -0.4010   -2.5080    1.3415 H   0  0  0  0  0  0  0  0  0  0  0  0
   -3.3438   -2.6793    0.6889 Cl  0  0  0  0  0  0  0  0  0  0  0  0
  2  3  3  0  0  0  0
  1  2  1  0  0  0  0
  4  5  3  0  0  0  0
  1  4  1  0  0  0  0
  1  6  1  0  0  0  0
  8  7  1  0  0  0  0
  6  7  1  0  0  0  0
  9 12  1  0  0  0  0
 12 13  2  0  0  0  0
 10 13  1  0  0  0  0
 10 14  2  0  0  0  0
 11 14  1  0  0  0  0
  9 11  2  0  0  0  0
 13 17  1  0  0  0  0
 14 18  1  0  0  0  0
 10 19  1  0  0  0  0
 11 15  1  0  0  0  0
 12 16  1  0  0  0  0
  7  9  1  0  0  0  0
 20 21  1  0  0  0  0
 20 22  1  0  0  0  0
 20 23  1  0  0  0  0
 20 24  1  0  0  0  0
 21 25  1  0  0  0  0
 21 26  1  0  0  0  0
  6 21  1  0  0  0  0
 27 28  1  0  0  0  0
 27 29  1  0  0  0  0
 27 30  1  0  0  0  0
 27 31  1  0  0  0  0
 28 32  1  0  0  0  0
 28 33  1  0  0  0  0
  6 28  1  0  0  0  0
  1 34  1  0  0  0  0
M  END
> <PM6_ENERGY>
-97.070

> <UID>
LQJFPCFSVHPZHI-DFCNDXKYNA-M

> <FITNESS>
1.13963

> <GCODE>
19627

> <GraphENC>
19627 72_1_0,81_66_1,101_4_1,88_67_1,235736_5_1,236630_32_1,235740_32_1,418749_36_1, 72_0_81_0_SINGLE_Xlig:0_Xlig:1,72_2_101_3_SINGLE_scaff:0_MMonoAminoPhosphine:1,72_1_88_0_SINGLE_Xlig:0_Xlig:1,101_0_235736_0_SINGLE_LMonoAminoPhosphineN:0_LAminoPhosphineNH:1,101_2_236630_0_SINGLE_LMonoAminoPhosphineSubR:0_SubRS:1,101_1_235740_0_SINGLE_LMonoAminoPhosphineSubR:0_SubRS:1,235736_1_418749_0_SINGLE_AminoPhosphineSubNL:0_SubArS:1, SymmetricSet [symIds=[236630, 235740]] 

> <GraphJson>
{
  "graphId": 19627,
  "gVertices": [
    {
      "lstAPs": [
        {
          "id": 529427,
          "atomPositionNumber": 0,
          "atomPositionNumberInMol": 0,
          "apClass": {
            "rule": "Xlig",
            "subClass": 0,
            "bndTyp": "SINGLE"
          },
          "dirVec": {
            "x": -2.3339,
            "y": -0.0087,
            "z": 0.8172
          }
        },
        {
          "id": 529428,
          "atomPositionNumber": 0,
          "atomPositionNumberInMol": 0,
          "apClass": {
            "rule": "Xlig",
            "subClass": 0,
            "bndTyp": "SINGLE"
          },
          "dirVec": {
            "x": 2.336,
            "y": -5.0E-4,
            "z": 0.829
          }
        },
        {
          "id": 529429,
          "atomPositionNumber": 0,
          "atomPositionNumberInMol": 0,
          "apClass": {
            "rule": "scaff",
            "subClass": 0,
            "bndTyp": "SINGLE"
          },
          "dirVec": {
            "x": -0.0095,
            "y": 0.0046,
            "z": -1.7113
          }
        }
      ],
      "lstSymAPs": [
        {
          "symIds": [
            0,
            1
          ]
        }
      ],
      "mol": {
        "atoms": [
          {
            "elSymbol": "Pt",
            "p3d": {
              "x": -0.0098,
              "y": 0.0049,
              "z": 0.6289
            }
          },
          {
            "elSymbol": "C",
            "p3d": {
              "x": -6.0E-4,
              "y": 0.0016,
              "z": 2.5609
            }
          },
          {
            "elSymbol": "O",
            "p3d": {
              "x": 0.0025,
              "y": -0.0041,
              "z": 3.6974
            }
          },
          {
            "elSymbol": "Du",
            "p3d": {
              "x": -0.007,
              "y": 1.0013,
              "z": 0.6372
            }
          },
          {
            "elSymbol": "Du",
            "p3d": {
              "x": -0.0014,
              "y": 0.9902,
              "z": 2.5698
            }
          }
        ],
        "bonds": [
          {
            "atomIds": [
              1,
              2
            ],
            "bo": "TRIPLE"
          },
          {
            "atomIds": [
              0,
              1
            ],
            "bo": "SINGLE"
          },
          {
            "atomIds": [
              3,
              0
            ],
            "bo": "SINGLE"
          },
          {
            "atomIds": [
              4,
              1
            ],
            "bo": "SINGLE"
          }
        ]
      },
      "vertexId": 72,
      "buildingBlockId": 0,
      "buildingBlockType": "SCAFFOLD",
      "isRCV": false,
      "properties": {
        "ATTACHMENT_POINTS": "1#Xlig:0:SINGLE:-2.3339%-0.0087%0.8172,Xlig:0:SINGLE:2.3360%-0.0005%0.8290,scaff:0:SINGLE:-0.0095%0.0046%-1.7113 "
      },
      "uniquefyingPropertyKeys": [],
      "allowedMutationTypes": [
        "DELETE",
        "EXTEND",
        "CHANGEBRANCH",
        "CHANGELINK",
        "ADDLINK",
        "DELETELINK",
        "DELETECHAIN"
      ],
      "vertexType": "MolecularFragment"
    },
    {
      "lstAPs": [
        {
          "id": 529430,
          "atomPositionNumber": 0,
          "atomPositionNumberInMol": 5,
          "apClass": {
            "rule": "Xlig",
            "subClass": 1,
            "bndTyp": "SINGLE"
          },
          "dirVec": {
            "x": 0.0192,
            "y": -0.0048,
            "z": -0.5645
          }
        }
      ],
      "lstSymAPs": [],
      "mol": {
        "atoms": [
          {
            "elSymbol": "C",
            "p3d": {
              "x": -1.967,
              "y": -0.0075,
              "z": -0.4937
            }
          },
          {
            "elSymbol": "N",
            "p3d": {
              "x": -3.1263,
              "y": -0.0054,
              "z": -0.4354
            }
          },
          {
            "elSymbol": "Du",
            "p3d": {
              "x": -1.9744,
              "y": 0.9926,
              "z": -0.5036
            }
          }
        ],
        "bonds": [
          {
            "atomIds": [
              0,
              1
            ],
            "bo": "TRIPLE"
          },
          {
            "atomIds": [
              2,
              0
            ],
            "bo": "SINGLE"
          }
        ]
      },
      "vertexId": 81,
      "buildingBlockId": 65,
      "buildingBlockType": "FRAGMENT",
      "isRCV": false,
      "properties": {
        "ATTACHMENT_POINTS": "1#Xlig:1:SINGLE:0.0192%-0.0048%-0.5645 "
      },
      "uniquefyingPropertyKeys": [],
      "allowedMutationTypes": [
        "DELETE",
        "EXTEND",
        "CHANGEBRANCH",
        "CHANGELINK",
        "ADDLINK",
        "DELETELINK",
        "DELETECHAIN"
      ],
      "vertexType": "MolecularFragment"
    },
    {
      "lstAPs": [
        {
          "id": 529431,
          "atomPositionNumber": 0,
          "atomPositionNumberInMol": 8,
          "apClass": {
            "rule": "LMonoAminoPhosphineN",
            "subClass": 0,
            "bndTyp": "SINGLE"
          },
          "dirVec": {
            "x": 3.1471,
            "y": 10.0719,
            "z": 6.8843
          }
        },
        {
          "id": 529432,
          "atomPositionNumber": 0,
          "atomPositionNumberInMol": 8,
          "apClass": {
            "rule": "LMonoAminoPhosphineSubR",
            "subClass": 0,
            "bndTyp": "SINGLE"
          },
          "dirVec": {
            "x": 0.3842,
            "y": 9.4902,
            "z": 6.7015
          }
        },
        {
          "id": 529433,
          "atomPositionNumber": 0,
          "atomPositionNumberInMol": 8,
          "apClass": {
            "rule": "LMonoAminoPhosphineSubR",
            "subClass": 0,
            "bndTyp": "SINGLE"
          },
          "dirVec": {
            "x": 2.2197,
            "y": 7.8057,
            "z": 8.2724
          }
        },
        {
          "id": 529434,
          "atomPositionNumber": 0,
          "atomPositionNumberInMol": 8,
          "apClass": {
            "rule": "MMonoAminoPhosphine",
            "subClass": 1,
            "bndTyp": "SINGLE"
          },
          "dirVec": {
            "x": 2.6023,
            "y": 7.6121,
            "z": 4.8117
          }
        }
      ],
      "lstSymAPs": [
        {
          "symIds": [
            1,
            2
          ]
        }
      ],
      "mol": {
        "atoms": [
          {
            "elSymbol": "P",
            "p3d": {
              "x": 2.1045,
              "y": 8.7901,
              "z": 6.7495
            }
          }
        ],
        "bonds": []
      },
      "vertexId": 101,
      "buildingBlockId": 3,
      "buildingBlockType": "FRAGMENT",
      "isRCV": false,
      "properties": {
        "ATTACHMENT_POINTS": "1#LMonoAminoPhosphineN:0:SINGLE:3.1471%10.0719%6.8843,LMonoAminoPhosphineSubR:0:SINGLE:0.3842%9.4902%6.7015,LMonoAminoPhosphineSubR:0:SINGLE:2.2197%7.8057%8.2724,MMonoAminoPhosphine:1:SINGLE:2.6023%7.6121%4.8117 "
      },
      "uniquefyingPropertyKeys": [],
      "allowedMutationTypes": [
        "DELETE",
        "EXTEND",
        "CHANGEBRANCH",
        "CHANGELINK",
        "ADDLINK",
        "DELETELINK",
        "DELETECHAIN"
      ],
      "vertexType": "MolecularFragment"
    },
    {
      "lstAPs": [
        {
          "id": 529435,
          "atomPositionNumber": 0,
          "atomPositionNumberInMol": 36,
          "apClass": {
            "rule": "Xlig",
            "subClass": 1,
            "bndTyp": "SINGLE"
          },
          "dirVec": {
            "x": -0.0053,
            "y": -0.0027,
            "z": 0.63
          }
        }
      ],
      "lstSymAPs": [],
      "mol": {
        "atoms": [
          {
            "elSymbol": "Cl",
            "p3d": {
              "x": 2.3243,
              "y": -0.0063,
              "z": 0.8189
            }
          }
        ],
        "bonds": []
      },
      "vertexId": 88,
      "buildingBlockId": 66,
      "buildingBlockType": "FRAGMENT",
      "isRCV": false,
      "properties": {
        "ATTACHMENT_POINTS": "1#Xlig:1:SINGLE:-0.0053%-0.0027%0.6300 "
      },
      "uniquefyingPropertyKeys": [],
      "allowedMutationTypes": [
        "DELETE",
        "EXTEND",
        "CHANGEBRANCH",
        "CHANGELINK",
        "ADDLINK",
        "DELETELINK",
        "DELETECHAIN"
      ],
      "vertexType": "MolecularFragment"
    },
    {
      "lstAPs": [
        {
          "id": 529436,
          "atomPositionNumber": 0,
          "atomPositionNumberInMol": 9,
          "apClass": {
            "rule": "LAminoPhosphineNH",
            "subClass": 1,
            "bndTyp": "SINGLE"
          },
          "dirVec": {
            "x": 6.5561,
            "y": 10.0497,
            "z": 0.7834
          }
        },
        {
          "id": 529437,
          "atomPositionNumber": 0,
          "atomPositionNumberInMol": 9,
          "apClass": {
            "rule": "AminoPhosphineSubNL",
            "subClass": 0,
            "bndTyp": "SINGLE"
          },
          "dirVec": {
            "x": 5.3575,
            "y": 10.9907,
            "z": -1.5461
          }
        }
      ],
      "lstSymAPs": [],
      "mol": {
        "atoms": [
          {
            "elSymbol": "N",
            "p3d": {
              "x": 5.9053,
              "y": 11.1997,
              "z": -0.1783
            }
          },
          {
            "elSymbol": "H",
            "p3d": {
              "x": 6.5049,
              "y": 12.0079,
              "z": -0.2127
            }
          }
        ],
        "bonds": [
          {
            "atomIds": [
              1,
              0
            ],
            "bo": "SINGLE"
          }
        ]
      },
      "vertexId": 235736,
      "buildingBlockId": 4,
      "buildingBlockType": "FRAGMENT",
      "isRCV": false,
      "properties": {
        "ATTACHMENT_POINTS": "1#LAminoPhosphineNH:1:SINGLE:6.5561%10.0497%0.7834,AminoPhosphineSubNL:0:SINGLE:5.3575%10.9907%-1.5461 "
      },
      "uniquefyingPropertyKeys": [],
      "allowedMutationTypes": [
        "DELETE",
        "EXTEND",
        "CHANGEBRANCH",
        "CHANGELINK",
        "ADDLINK",
        "DELETELINK",
        "DELETECHAIN"
      ],
      "vertexType": "MolecularFragment"
    },
    {
      "lstAPs": [
        {
          "id": 529438,
          "atomPositionNumber": 1,
          "atomPositionNumberInMol": 23,
          "apClass": {
            "rule": "SubRS",
            "subClass": 1,
            "bndTyp": "SINGLE"
          },
          "dirVec": {
            "x": 0.2985,
            "y": 0.384,
            "z": -0.6258
          }
        }
      ],
      "lstSymAPs": [],
      "mol": {
        "atoms": [
          {
            "elSymbol": "C",
            "p3d": {
              "x": -1.0244,
              "y": -0.2225,
              "z": 1.3991
            }
          },
          {
            "elSymbol": "C",
            "p3d": {
              "x": 0.3973,
              "y": -0.042,
              "z": 0.8195
            }
          },
          {
            "elSymbol": "H",
            "p3d": {
              "x": -1.5635,
              "y": -0.9908,
              "z": 0.8263
            }
          },
          {
            "elSymbol": "H",
            "p3d": {
              "x": -0.941,
              "y": -0.535,
              "z": 2.446
            }
          },
          {
            "elSymbol": "H",
            "p3d": {
              "x": -1.5586,
              "y": 0.7335,
              "z": 1.3382
            }
          },
          {
            "elSymbol": "H",
            "p3d": {
              "x": 0.9335,
              "y": 0.7221,
              "z": 1.4011
            }
          },
          {
            "elSymbol": "H",
            "p3d": {
              "x": 0.927,
              "y": -1.0102,
              "z": 0.9001
            }
          }
        ],
        "bonds": [
          {
            "atomIds": [
              0,
              1
            ],
            "bo": "SINGLE"
          },
          {
            "atomIds": [
              0,
              2
            ],
            "bo": "SINGLE"
          },
          {
            "atomIds": [
              0,
              3
            ],
            "bo": "SINGLE"
          },
          {
            "atomIds": [
              0,
              4
            ],
            "bo": "SINGLE"
          },
          {
            "atomIds": [
              1,
              5
            ],
            "bo": "SINGLE"
          },
          {
            "atomIds": [
              1,
              6
            ],
            "bo": "SINGLE"
          }
        ]
      },
      "vertexId": 236630,
      "buildingBlockId": 31,
      "buildingBlockType": "FRAGMENT",
      "isRCV": false,
      "properties": {
        "ATTACHMENT_POINTS": "2#SubRS:1:SINGLE:0.2985%0.3840%-0.6258 "
      },
      "uniquefyingPropertyKeys": [],
      "allowedMutationTypes": [
        "DELETE",
        "EXTEND",
        "CHANGEBRANCH",
        "CHANGELINK",
        "ADDLINK",
        "DELETELINK",
        "DELETECHAIN"
      ],
      "vertexType": "MolecularFragment"
    },
    {
      "lstAPs": [
        {
          "id": 529439,
          "atomPositionNumber": 1,
          "atomPositionNumberInMol": 30,
          "apClass": {
            "rule": "SubRS",
            "subClass": 1,
            "bndTyp": "SINGLE"
          },
          "dirVec": {
            "x": 0.2985,
            "y": 0.384,
            "z": -0.6258
          }
        }
      ],
      "lstSymAPs": [],
      "mol": {
        "atoms": [
          {
            "elSymbol": "C",
            "p3d": {
              "x": -1.0244,
              "y": -0.2225,
              "z": 1.3991
            }
          },
          {
            "elSymbol": "C",
            "p3d": {
              "x": 0.3973,
              "y": -0.042,
              "z": 0.8195
            }
          },
          {
            "elSymbol": "H",
            "p3d": {
              "x": -1.5635,
              "y": -0.9908,
              "z": 0.8263
            }
          },
          {
            "elSymbol": "H",
            "p3d": {
              "x": -0.941,
              "y": -0.535,
              "z": 2.446
            }
          },
          {
            "elSymbol": "H",
            "p3d": {
              "x": -1.5586,
              "y": 0.7335,
              "z": 1.3382
            }
          },
          {
            "elSymbol": "H",
            "p3d": {
              "x": 0.9335,
              "y": 0.7221,
              "z": 1.4011
            }
          },
          {
            "elSymbol": "H",
            "p3d": {
              "x": 0.927,
              "y": -1.0102,
              "z": 0.9001
            }
          }
        ],
        "bonds": [
          {
            "atomIds": [
              0,
              1
            ],
            "bo": "SINGLE"
          },
          {
            "atomIds": [
              0,
              2
            ],
            "bo": "SINGLE"
          },
          {
            "atomIds": [
              0,
              3
            ],
            "bo": "SINGLE"
          },
          {
            "atomIds": [
              0,
              4
            ],
            "bo": "SINGLE"
          },
          {
            "atomIds": [
              1,
              5
            ],
            "bo": "SINGLE"
          },
          {
            "atomIds": [
              1,
              6
            ],
            "bo": "SINGLE"
          }
        ]
      },
      "vertexId": 235740,
      "buildingBlockId": 31,
      "buildingBlockType": "FRAGMENT",
      "isRCV": false,
      "properties": {
        "ATTACHMENT_POINTS": "2#SubRS:1:SINGLE:0.2985%0.3840%-0.6258 "
      },
      "uniquefyingPropertyKeys": [],
      "allowedMutationTypes": [
        "DELETE",
        "EXTEND",
        "CHANGEBRANCH",
        "CHANGELINK",
        "ADDLINK",
        "DELETELINK",
        "DELETECHAIN"
      ],
      "vertexType": "MolecularFragment"
    },
    {
      "lstAPs": [
        {
          "id": 529482,
          "atomPositionNumber": 0,
          "atomPositionNumberInMol": 11,
          "apClass": {
            "rule": "SubArS",
            "subClass": 1,
            "bndTyp": "SINGLE"
          },
          "dirVec": {
            "x": 0.2973,
            "y": 0.3873,
            "z": -0.6389
          }
        }
      ],
      "lstSymAPs": [],
      "mol": {
        "atoms": [
          {
            "elSymbol": "C",
            "p3d": {
              "x": 1.6995,
              "y": 0.5593,
              "z": -1.2083
            }
          },
          {
            "elSymbol": "C",
            "p3d": {
              "x": 4.2563,
              "y": 0.8754,
              "z": -2.2592
            }
          },
          {
            "elSymbol": "C",
            "p3d": {
              "x": 2.3334,
              "y": 1.79,
              "z": -1.1338
            }
          },
          {
            "elSymbol": "C",
            "p3d": {
              "x": 2.3422,
              "y": -0.5107,
              "z": -1.8125
            }
          },
          {
            "elSymbol": "C",
            "p3d": {
              "x": 3.612,
              "y": -0.3527,
              "z": -2.3321
            }
          },
          {
            "elSymbol": "C",
            "p3d": {
              "x": 3.6062,
              "y": 1.9513,
              "z": -1.6526
            }
          },
          {
            "elSymbol": "H",
            "p3d": {
              "x": 1.833,
              "y": 2.6461,
              "z": -0.6488
            }
          },
          {
            "elSymbol": "H",
            "p3d": {
              "x": 1.8361,
              "y": -1.4773,
              "z": -1.887
            }
          },
          {
            "elSymbol": "H",
            "p3d": {
              "x": 4.115,
              "y": -1.2043,
              "z": -2.8152
            }
          },
          {
            "elSymbol": "H",
            "p3d": {
              "x": 4.1097,
              "y": 2.9214,
              "z": -1.5842
            }
          },
          {
            "elSymbol": "H",
            "p3d": {
              "x": 5.2498,
              "y": 0.9926,
              "z": -2.665
            }
          }
        ],
        "bonds": [
          {
            "atomIds": [
              0,
              3
            ],
            "bo": "SINGLE"
          },
          {
            "atomIds": [
              3,
              4
            ],
            "bo": "DOUBLE"
          },
          {
            "atomIds": [
              1,
              4
            ],
            "bo": "SINGLE"
          },
          {
            "atomIds": [
              1,
              5
            ],
            "bo": "DOUBLE"
          },
          {
            "atomIds": [
              2,
              5
            ],
            "bo": "SINGLE"
          },
          {
            "atomIds": [
              0,
              2
            ],
            "bo": "DOUBLE"
          },
          {
            "atomIds": [
              4,
              8
            ],
            "bo": "SINGLE"
          },
          {
            "atomIds": [
              5,
              9
            ],
            "bo": "SINGLE"
          },
          {
            "atomIds": [
              1,
              10
            ],
            "bo": "SINGLE"
          },
          {
            "atomIds": [
              2,
              6
            ],
            "bo": "SINGLE"
          },
          {
            "atomIds": [
              3,
              7
            ],
            "bo": "SINGLE"
          }
        ]
      },
      "vertexId": 418749,
      "buildingBlockId": 35,
      "buildingBlockType": "FRAGMENT",
      "isRCV": false,
      "properties": {
        "ATTACHMENT_POINTS": "1#SubArS:1:SINGLE:0.2973%0.3873%-0.6389 "
      },
      "uniquefyingPropertyKeys": [],
      "allowedMutationTypes": [
        "DELETE",
        "EXTEND",
        "CHANGEBRANCH",
        "CHANGELINK",
        "ADDLINK",
        "DELETELINK",
        "DELETECHAIN"
      ],
      "vertexType": "MolecularFragment"
    }
  ],
  "gEdges": [
    {
      "srcAPID": 529427,
      "trgAPID": 529430,
      "bondType": "SINGLE"
    },
    {
      "srcAPID": 529429,
      "trgAPID": 529434,
      "bondType": "SINGLE"
    },
    {
      "srcAPID": 529428,
      "trgAPID": 529435,
      "bondType": "SINGLE"
    },
    {
      "srcAPID": 529431,
      "trgAPID": 529436,
      "bondType": "SINGLE"
    },
    {
      "srcAPID": 529433,
      "trgAPID": 529438,
      "bondType": "SINGLE"
    },
    {
      "srcAPID": 529432,
      "trgAPID": 529439,
      "bondType": "SINGLE"
    },
    {
      "srcAPID": 529437,
      "trgAPID": 529482,
      "bondType": "SINGLE"
    }
  ],
  "gRings": [],
  "symVertices": [
    {
      "symIds": [
        236630,
        235740
      ]
    }
  ]
}

> <SMILES>
[Pt](C#O)(C#N)([P](N([H])C=1C(=C(C(=C(C1[H])[H])[H])[H])[H])(C(C([H])([H])[H])([H])[H])C(C([H])([H])[H])([H])[H])Cl

$$$$
