M00000695
  CDK     04222208533D

 29 29  0  0  0  0  0  0  0  0999 V2000
   -1.8758   -0.1066    0.2701 Pt  0  0  0  0  0  0  0  0  0  0  0  0
   -3.8199    0.1008    0.2164 C   0  0  0  0  0  0  0  0  0  0  0  0
   -4.9527    0.2303    0.1791 O   0  0  0  0  0  0  0  0  0  0  0  0
   -1.8910    1.9460    1.3288 S   0  0  0  0  0  0  0  0  0  0  0  0
   -2.1083    1.3104    3.0126 C   0  0  0  0  0  0  0  0  0  0  0  0
   -1.2858    1.6443    3.6532 H   0  0  0  0  0  0  0  0  0  0  0  0
   -2.1462    0.2137    3.0239 H   0  0  0  0  0  0  0  0  0  0  0  0
   -3.0455    1.6932    3.4355 H   0  0  0  0  0  0  0  0  0  0  0  0
    0.4075   -0.2808    0.3403 P   0  0  0  0  0  0  0  0  0  0  0  0
    1.2491    1.2330   -0.3864 C   0  0  0  0  0  0  0  0  0  0  0  0
    0.7920    2.1604    0.0255 H   0  0  0  0  0  0  0  0  0  0  0  0
    2.3181    1.2640   -0.1023 H   0  0  0  0  0  0  0  0  0  0  0  0
    1.0802    1.1701   -1.9029 C   0  0  0  0  0  0  0  0  0  0  0  0
    0.0095    1.2763   -2.1889 H   0  0  0  0  0  0  0  0  0  0  0  0
    1.5778    2.0569   -2.3517 H   0  0  0  0  0  0  0  0  0  0  0  0
    1.6666   -0.1022   -2.5340 C   0  0  0  0  0  0  0  0  0  0  0  0
    2.7383   -0.1980   -2.2737 H   0  0  0  0  0  0  0  0  0  0  0  0
    1.6397    0.0015   -3.6382 H   0  0  0  0  0  0  0  0  0  0  0  0
    0.9095   -1.3784   -2.1396 C   0  0  0  0  0  0  0  0  0  0  0  0
    1.2921   -2.2282   -2.7453 H   0  0  0  0  0  0  0  0  0  0  0  0
   -0.1644   -1.2981   -2.4326 H   0  0  0  0  0  0  0  0  0  0  0  0
    1.0366   -1.7402   -0.6611 C   0  0  0  0  0  0  0  0  0  0  0  0
    2.0797   -1.9886   -0.3936 H   0  0  0  0  0  0  0  0  0  0  0  0
    0.4259   -2.6461   -0.4386 H   0  0  0  0  0  0  0  0  0  0  0  0
    1.0099   -0.4997    2.0958 C   0  0  0  0  0  0  0  0  0  0  0  0
    0.5355   -1.3719    2.5717 H   0  0  0  0  0  0  0  0  0  0  0  0
    2.0962   -0.6424    2.1488 H   0  0  0  0  0  0  0  0  0  0  0  0
    0.7583    0.3792    2.7113 H   0  0  0  0  0  0  0  0  0  0  0  0
   -2.3331   -2.1990   -0.8242 Cl  0  0  0  0  0  0  0  0  0  0  0  0
  2  3  3  0  0  0  0
  1  2  1  0  0  0  0
  5  6  1  0  0  0  0
  5  7  1  0  0  0  0
  5  8  1  0  0  0  0
  4  5  1  0  0  0  0
  1  4  1  0  0  0  0
 10  9  1  0  0  0  0
 11 10  1  0  0  0  0
 12 10  1  0  0  0  0
 13 10  1  0  0  0  0
 14 13  1  0  0  0  0
 15 13  1  0  0  0  0
 16 13  1  0  0  0  0
 17 16  1  0  0  0  0
 18 16  1  0  0  0  0
 19 16  1  0  0  0  0
 19 22  1  0  0  0  0
 20 19  1  0  0  0  0
 21 19  1  0  0  0  0
 22  9  1  0  0  0  0
 23 22  1  0  0  0  0
 24 22  1  0  0  0  0
  1  9  1  0  0  0  0
 25 26  1  0  0  0  0
 25 27  1  0  0  0  0
 25 28  1  0  0  0  0
  9 25  1  0  0  0  0
  1 29  1  0  0  0  0
M  END
> <PM6_ENERGY>
-347.061

> <UID>
HWJNPMFWYWBVEP-WLUYIOTQNA-L

> <FITNESS>
1.14079

> <GCODE>
1268

> <GraphENC>
1268 72_1_0,79_64_1,105_43_1,88_67_1,21122_31_1, 72_0_79_0_SINGLE_Xlig:0_Xlig:1,72_2_105_1_SINGLE_scaff:0_MPhosphine:1,72_1_88_0_SINGLE_Xlig:0_Xlig:1,105_0_21122_0_SINGLE_LPhosphineSubM:0_SubRS:1, 

> <GraphJson>
{
  "graphId": 1268,
  "gVertices": [
    {
      "lstAPs": [
        {
          "id": 29185,
          "atomPositionNumber": 0,
          "atomPositionNumberInMol": 0,
          "apClass": {
            "rule": "Xlig",
            "subClass": 0,
            "bndTyp": "SINGLE"
          },
          "dirVec": {
            "x": -2.3339,
            "y": -0.0087,
            "z": 0.8172
          }
        },
        {
          "id": 29186,
          "atomPositionNumber": 0,
          "atomPositionNumberInMol": 0,
          "apClass": {
            "rule": "Xlig",
            "subClass": 0,
            "bndTyp": "SINGLE"
          },
          "dirVec": {
            "x": 2.336,
            "y": -5.0E-4,
            "z": 0.829
          }
        },
        {
          "id": 29187,
          "atomPositionNumber": 0,
          "atomPositionNumberInMol": 0,
          "apClass": {
            "rule": "scaff",
            "subClass": 0,
            "bndTyp": "SINGLE"
          },
          "dirVec": {
            "x": -0.0095,
            "y": 0.0046,
            "z": -1.7113
          }
        }
      ],
      "lstSymAPs": [
        {
          "symIds": [
            0,
            1
          ]
        }
      ],
      "mol": {
        "atoms": [
          {
            "elSymbol": "Pt",
            "p3d": {
              "x": -0.0098,
              "y": 0.0049,
              "z": 0.6289
            }
          },
          {
            "elSymbol": "C",
            "p3d": {
              "x": -6.0E-4,
              "y": 0.0016,
              "z": 2.5609
            }
          },
          {
            "elSymbol": "O",
            "p3d": {
              "x": 0.0025,
              "y": -0.0041,
              "z": 3.6974
            }
          },
          {
            "elSymbol": "Du",
            "p3d": {
              "x": -0.007,
              "y": 1.0013,
              "z": 0.6372
            }
          },
          {
            "elSymbol": "Du",
            "p3d": {
              "x": -0.0014,
              "y": 0.9902,
              "z": 2.5698
            }
          }
        ],
        "bonds": [
          {
            "atomIds": [
              1,
              2
            ],
            "bo": "TRIPLE"
          },
          {
            "atomIds": [
              0,
              1
            ],
            "bo": "SINGLE"
          },
          {
            "atomIds": [
              3,
              0
            ],
            "bo": "SINGLE"
          },
          {
            "atomIds": [
              4,
              1
            ],
            "bo": "SINGLE"
          }
        ]
      },
      "vertexId": 72,
      "buildingBlockId": 0,
      "buildingBlockType": "SCAFFOLD",
      "isRCV": false,
      "properties": {
        "ATTACHMENT_POINTS": "1#Xlig:0:SINGLE:-2.3339%-0.0087%0.8172,Xlig:0:SINGLE:2.3360%-0.0005%0.8290,scaff:0:SINGLE:-0.0095%0.0046%-1.7113 "
      },
      "uniquefyingPropertyKeys": [],
      "allowedMutationTypes": [
        "DELETE",
        "EXTEND",
        "CHANGEBRANCH",
        "CHANGELINK",
        "ADDLINK",
        "DELETELINK",
        "DELETECHAIN"
      ],
      "vertexType": "MolecularFragment"
    },
    {
      "lstAPs": [
        {
          "id": 29188,
          "atomPositionNumber": 0,
          "atomPositionNumberInMol": 5,
          "apClass": {
            "rule": "Xlig",
            "subClass": 1,
            "bndTyp": "SINGLE"
          },
          "dirVec": {
            "x": -0.102,
            "y": 0.0185,
            "z": -1.0265
          }
        }
      ],
      "lstSymAPs": [],
      "mol": {
        "atoms": [
          {
            "elSymbol": "S",
            "p3d": {
              "x": -0.3267,
              "y": 2.3403,
              "z": -1.0022
            }
          },
          {
            "elSymbol": "C",
            "p3d": {
              "x": -0.626,
              "y": 2.4866,
              "z": 0.7805
            }
          },
          {
            "elSymbol": "H",
            "p3d": {
              "x": 0.1766,
              "y": 3.089,
              "z": 1.2414
            }
          },
          {
            "elSymbol": "H",
            "p3d": {
              "x": -0.651,
              "y": 1.5065,
              "z": 1.2643
            }
          },
          {
            "elSymbol": "H",
            "p3d": {
              "x": -1.5658,
              "y": 2.981,
              "z": 0.9515
            }
          }
        ],
        "bonds": [
          {
            "atomIds": [
              1,
              2
            ],
            "bo": "SINGLE"
          },
          {
            "atomIds": [
              1,
              3
            ],
            "bo": "SINGLE"
          },
          {
            "atomIds": [
              1,
              4
            ],
            "bo": "SINGLE"
          },
          {
            "atomIds": [
              0,
              1
            ],
            "bo": "SINGLE"
          }
        ]
      },
      "vertexId": 79,
      "buildingBlockId": 63,
      "buildingBlockType": "FRAGMENT",
      "isRCV": false,
      "properties": {
        "ATTACHMENT_POINTS": "1#Xlig:1:SINGLE:-0.1020%0.0185%-1.0265 "
      },
      "uniquefyingPropertyKeys": [],
      "allowedMutationTypes": [
        "DELETE",
        "EXTEND",
        "CHANGEBRANCH",
        "CHANGELINK",
        "ADDLINK",
        "DELETELINK",
        "DELETECHAIN"
      ],
      "vertexType": "MolecularFragment"
    },
    {
      "lstAPs": [
        {
          "id": 29189,
          "atomPositionNumber": 0,
          "atomPositionNumberInMol": 10,
          "apClass": {
            "rule": "LPhosphineSubM",
            "subClass": 0,
            "bndTyp": "SINGLE"
          },
          "dirVec": {
            "x": -1.1846,
            "y": 9.2743,
            "z": 11.0929
          }
        },
        {
          "id": 29190,
          "atomPositionNumber": 0,
          "atomPositionNumberInMol": 10,
          "apClass": {
            "rule": "MPhosphine",
            "subClass": 1,
            "bndTyp": "SINGLE"
          },
          "dirVec": {
            "x": 0.7356,
            "y": 6.5277,
            "z": 10.7143
          }
        }
      ],
      "lstSymAPs": [],
      "mol": {
        "atoms": [
          {
            "elSymbol": "P",
            "p3d": {
              "x": 0.3777,
              "y": 8.7188,
              "z": 10.3566
            }
          },
          {
            "elSymbol": "C",
            "p3d": {
              "x": 0.3703,
              "y": 9.4545,
              "z": 8.6907
            }
          },
          {
            "elSymbol": "H",
            "p3d": {
              "x": -0.3722,
              "y": 8.9257,
              "z": 8.0745
            }
          },
          {
            "elSymbol": "H",
            "p3d": {
              "x": 0.0532,
              "y": 10.4926,
              "z": 8.7648
            }
          },
          {
            "elSymbol": "C",
            "p3d": {
              "x": 1.7376,
              "y": 9.3835,
              "z": 8.006
            }
          },
          {
            "elSymbol": "H",
            "p3d": {
              "x": 2.0419,
              "y": 8.3396,
              "z": 7.8978
            }
          },
          {
            "elSymbol": "H",
            "p3d": {
              "x": 1.6558,
              "y": 9.7991,
              "z": 7.0025
            }
          },
          {
            "elSymbol": "C",
            "p3d": {
              "x": 2.7947,
              "y": 10.1457,
              "z": 8.774
            }
          },
          {
            "elSymbol": "H",
            "p3d": {
              "x": 2.5157,
              "y": 11.1973,
              "z": 8.8416
            }
          },
          {
            "elSymbol": "H",
            "p3d": {
              "x": 3.7443,
              "y": 10.0811,
              "z": 8.2528
            }
          },
          {
            "elSymbol": "C",
            "p3d": {
              "x": 2.9937,
              "y": 9.6061,
              "z": 10.2064
            }
          },
          {
            "elSymbol": "H",
            "p3d": {
              "x": 3.7985,
              "y": 10.1828,
              "z": 10.6765
            }
          },
          {
            "elSymbol": "H",
            "p3d": {
              "x": 3.2993,
              "y": 8.5721,
              "z": 10.1385
            }
          },
          {
            "elSymbol": "C",
            "p3d": {
              "x": 1.7325,
              "y": 9.7184,
              "z": 11.0567
            }
          },
          {
            "elSymbol": "H",
            "p3d": {
              "x": 1.4263,
              "y": 10.7573,
              "z": 11.1135
            }
          },
          {
            "elSymbol": "H",
            "p3d": {
              "x": 1.9542,
              "y": 9.3693,
              "z": 12.0604
            }
          }
        ],
        "bonds": [
          {
            "atomIds": [
              1,
              0
            ],
            "bo": "SINGLE"
          },
          {
            "atomIds": [
              2,
              1
            ],
            "bo": "SINGLE"
          },
          {
            "atomIds": [
              3,
              1
            ],
            "bo": "SINGLE"
          },
          {
            "atomIds": [
              4,
              1
            ],
            "bo": "SINGLE"
          },
          {
            "atomIds": [
              5,
              4
            ],
            "bo": "SINGLE"
          },
          {
            "atomIds": [
              6,
              4
            ],
            "bo": "SINGLE"
          },
          {
            "atomIds": [
              7,
              4
            ],
            "bo": "SINGLE"
          },
          {
            "atomIds": [
              8,
              7
            ],
            "bo": "SINGLE"
          },
          {
            "atomIds": [
              9,
              7
            ],
            "bo": "SINGLE"
          },
          {
            "atomIds": [
              10,
              7
            ],
            "bo": "SINGLE"
          },
          {
            "atomIds": [
              10,
              13
            ],
            "bo": "SINGLE"
          },
          {
            "atomIds": [
              11,
              10
            ],
            "bo": "SINGLE"
          },
          {
            "atomIds": [
              12,
              10
            ],
            "bo": "SINGLE"
          },
          {
            "atomIds": [
              13,
              0
            ],
            "bo": "SINGLE"
          },
          {
            "atomIds": [
              14,
              13
            ],
            "bo": "SINGLE"
          },
          {
            "atomIds": [
              15,
              13
            ],
            "bo": "SINGLE"
          }
        ]
      },
      "vertexId": 105,
      "buildingBlockId": 42,
      "buildingBlockType": "FRAGMENT",
      "isRCV": false,
      "properties": {
        "ATTACHMENT_POINTS": "1#LPhosphineSubM:0:SINGLE:-1.1846%9.2743%11.0929,MPhosphine:1:SINGLE:0.7356%6.5277%10.7143 "
      },
      "uniquefyingPropertyKeys": [],
      "allowedMutationTypes": [
        "DELETE",
        "EXTEND",
        "CHANGEBRANCH",
        "CHANGELINK",
        "ADDLINK",
        "DELETELINK",
        "DELETECHAIN"
      ],
      "vertexType": "MolecularFragment"
    },
    {
      "lstAPs": [
        {
          "id": 29191,
          "atomPositionNumber": 0,
          "atomPositionNumberInMol": 30,
          "apClass": {
            "rule": "Xlig",
            "subClass": 1,
            "bndTyp": "SINGLE"
          },
          "dirVec": {
            "x": -0.0053,
            "y": -0.0027,
            "z": 0.63
          }
        }
      ],
      "lstSymAPs": [],
      "mol": {
        "atoms": [
          {
            "elSymbol": "Cl",
            "p3d": {
              "x": 2.3243,
              "y": -0.0063,
              "z": 0.8189
            }
          }
        ],
        "bonds": []
      },
      "vertexId": 88,
      "buildingBlockId": 66,
      "buildingBlockType": "FRAGMENT",
      "isRCV": false,
      "properties": {
        "ATTACHMENT_POINTS": "1#Xlig:1:SINGLE:-0.0053%-0.0027%0.6300 "
      },
      "uniquefyingPropertyKeys": [],
      "allowedMutationTypes": [
        "DELETE",
        "EXTEND",
        "CHANGEBRANCH",
        "CHANGELINK",
        "ADDLINK",
        "DELETELINK",
        "DELETECHAIN"
      ],
      "vertexType": "MolecularFragment"
    },
    {
      "lstAPs": [
        {
          "id": 29208,
          "atomPositionNumber": 0,
          "atomPositionNumberInMol": 26,
          "apClass": {
            "rule": "SubRS",
            "subClass": 1,
            "bndTyp": "SINGLE"
          },
          "dirVec": {
            "x": 0.2865,
            "y": 0.3959,
            "z": -0.6387
          }
        }
      ],
      "lstSymAPs": [],
      "mol": {
        "atoms": [
          {
            "elSymbol": "C",
            "p3d": {
              "x": 0.3969,
              "y": -0.0496,
              "z": 0.8235
            }
          },
          {
            "elSymbol": "H",
            "p3d": {
              "x": -0.6146,
              "y": -0.163,
              "z": 1.2402
            }
          },
          {
            "elSymbol": "H",
            "p3d": {
              "x": 0.9335,
              "y": -0.9979,
              "z": 0.8998
            }
          },
          {
            "elSymbol": "H",
            "p3d": {
              "x": 0.9252,
              "y": 0.7237,
              "z": 1.3995
            }
          }
        ],
        "bonds": [
          {
            "atomIds": [
              0,
              1
            ],
            "bo": "SINGLE"
          },
          {
            "atomIds": [
              0,
              2
            ],
            "bo": "SINGLE"
          },
          {
            "atomIds": [
              0,
              3
            ],
            "bo": "SINGLE"
          }
        ]
      },
      "vertexId": 21122,
      "buildingBlockId": 30,
      "buildingBlockType": "FRAGMENT",
      "isRCV": false,
      "properties": {
        "ATTACHMENT_POINTS": "1#SubRS:1:SINGLE:0.2865%0.3959%-0.6387 "
      },
      "uniquefyingPropertyKeys": [],
      "allowedMutationTypes": [
        "DELETE",
        "EXTEND",
        "CHANGEBRANCH",
        "CHANGELINK",
        "ADDLINK",
        "DELETELINK",
        "DELETECHAIN"
      ],
      "vertexType": "MolecularFragment"
    }
  ],
  "gEdges": [
    {
      "srcAPID": 29185,
      "trgAPID": 29188,
      "bondType": "SINGLE"
    },
    {
      "srcAPID": 29187,
      "trgAPID": 29190,
      "bondType": "SINGLE"
    },
    {
      "srcAPID": 29186,
      "trgAPID": 29191,
      "bondType": "SINGLE"
    },
    {
      "srcAPID": 29189,
      "trgAPID": 29208,
      "bondType": "SINGLE"
    }
  ],
  "gRings": [],
  "symVertices": []
}

> <SMILES>
[Pt](C#O)(SC([H])([H])[H])([P]1(C([H])([H])C([H])([H])C([H])([H])C(C1([H])[H])([H])[H])C([H])([H])[H])Cl

$$$$
