M00003619
  CDK     04222210013D

 43 45  0  0  0  0  0  0  0  0999 V2000
   -2.5121   -0.0695    0.2733 Pt  0  0  0  0  0  0  0  0  0  0  0  0
   -4.4473   -0.0131    0.6123 C   0  0  0  0  0  0  0  0  0  0  0  0
   -5.5685    0.0629    0.8136 O   0  0  0  0  0  0  0  0  0  0  0  0
   -1.9352    1.8750    0.5298 O   0  0  0  0  0  0  0  0  0  0  0  0
   -2.4226    2.4229    1.7368 C   0  0  0  0  0  0  0  0  0  0  0  0
   -1.9302    3.4015    1.8331 H   0  0  0  0  0  0  0  0  0  0  0  0
   -2.1552    1.7770    2.5822 H   0  0  0  0  0  0  0  0  0  0  0  0
   -3.5091    2.5523    1.6648 H   0  0  0  0  0  0  0  0  0  0  0  0
   -0.3090    0.1442   -0.0055 P   0  0  0  0  0  0  0  0  0  0  0  0
    0.1612    1.3958   -1.0782 O   0  0  0  0  0  0  0  0  0  0  0  0
    0.4681    0.7204    1.4251 O   0  0  0  0  0  0  0  0  0  0  0  0
    0.8896    2.3043   -0.2999 C   0  0  0  0  0  0  0  0  0  0  0  0
    1.0659    1.9287    1.0620 C   0  0  0  0  0  0  0  0  0  0  0  0
    1.7868    2.7164    1.9407 C   0  0  0  0  0  0  0  0  0  0  0  0
    2.3349    3.9082    1.4245 C   0  0  0  0  0  0  0  0  0  0  0  0
    2.1558    4.2782    0.0924 C   0  0  0  0  0  0  0  0  0  0  0  0
    1.4208    3.4764   -0.8046 C   0  0  0  0  0  0  0  0  0  0  0  0
    2.5866    5.2106   -0.2730 H   0  0  0  0  0  0  0  0  0  0  0  0
    2.9079    4.5517    2.0924 H   0  0  0  0  0  0  0  0  0  0  0  0
    1.9190    2.4282    2.9806 H   0  0  0  0  0  0  0  0  0  0  0  0
    0.6617   -1.3400   -0.4431 C   0  0  0  0  0  0  0  0  0  0  0  0
    2.0562   -3.7079   -0.9118 C   0  0  0  0  0  0  0  0  0  0  0  0
    1.5021   -1.4320   -1.5642 C   0  0  0  0  0  0  0  0  0  0  0  0
    0.5086   -2.4232    0.4467 C   0  0  0  0  0  0  0  0  0  0  0  0
    1.2186   -3.6104    0.1990 C   0  0  0  0  0  0  0  0  0  0  0  0
    2.1980   -2.6325   -1.7899 C   0  0  0  0  0  0  0  0  0  0  0  0
    1.1112   -4.4576    0.8735 H   0  0  0  0  0  0  0  0  0  0  0  0
    2.8537   -2.7256   -2.6528 H   0  0  0  0  0  0  0  0  0  0  0  0
    2.6046   -4.6334   -1.0971 H   0  0  0  0  0  0  0  0  0  0  0  0
    1.6987   -0.3181   -2.5393 C   0  0  0  0  0  0  0  0  0  0  0  0
    0.7507    0.0833   -2.9330 H   0  0  0  0  0  0  0  0  0  0  0  0
    2.2887   -0.6210   -3.4157 H   0  0  0  0  0  0  0  0  0  0  0  0
    2.2315    0.5330   -2.0834 H   0  0  0  0  0  0  0  0  0  0  0  0
   -0.3982   -2.3660    1.6297 C   0  0  0  0  0  0  0  0  0  0  0  0
   -1.4731   -2.4134    1.3129 H   0  0  0  0  0  0  0  0  0  0  0  0
   -0.2594   -1.4822    2.2699 H   0  0  0  0  0  0  0  0  0  0  0  0
   -0.2710   -3.2285    2.3006 H   0  0  0  0  0  0  0  0  0  0  0  0
    1.2662    3.7686   -1.8403 H   0  0  0  0  0  0  0  0  0  0  0  0
   -2.9670   -2.0425   -0.0158 O   0  0  0  0  0  0  0  0  0  0  0  0
   -2.6689   -2.4214   -1.3434 C   0  0  0  0  0  0  0  0  0  0  0  0
   -3.3262   -3.2744   -1.5654 H   0  0  0  0  0  0  0  0  0  0  0  0
   -1.6174   -2.7325   -1.4056 H   0  0  0  0  0  0  0  0  0  0  0  0
   -2.8766   -1.5941   -2.0339 H   0  0  0  0  0  0  0  0  0  0  0  0
  2  3  3  0  0  0  0
  1  2  1  0  0  0  0
  5  6  1  0  0  0  0
  5  7  1  0  0  0  0
  5  8  1  0  0  0  0
  4  5  1  0  0  0  0
  1  4  1  0  0  0  0
 10  9  1  0  0  0  0
 11  9  1  0  0  0  0
 12 10  1  0  0  0  0
 12 13  2  0  0  0  0
 13 11  1  0  0  0  0
 14 13  1  0  0  0  0
 15 14  2  0  0  0  0
 16 15  1  0  0  0  0
 16 17  2  0  0  0  0
 17 12  1  0  0  0  0
  1  9  1  0  0  0  0
 16 18  1  0  0  0  0
 15 19  1  0  0  0  0
 14 20  1  0  0  0  0
 21 24  1  0  0  0  0
 24 25  2  0  0  0  0
 22 25  1  0  0  0  0
 22 26  2  0  0  0  0
 23 26  1  0  0  0  0
 21 23  2  0  0  0  0
 25 27  1  0  0  0  0
 26 28  1  0  0  0  0
 22 29  1  0  0  0  0
 30 31  1  0  0  0  0
 30 32  1  0  0  0  0
 30 33  1  0  0  0  0
 23 30  1  0  0  0  0
 34 35  1  0  0  0  0
 34 36  1  0  0  0  0
 34 37  1  0  0  0  0
 24 34  1  0  0  0  0
  9 21  1  0  0  0  0
 17 38  1  0  0  0  0
 40 41  1  0  0  0  0
 40 42  1  0  0  0  0
 40 43  1  0  0  0  0
 39 40  1  0  0  0  0
  1 39  1  0  0  0  0
M  END
> <PM6_ENERGY>
-577.706

> <UID>
QRUHEGBBPBMENH-FYKMLSLZNA-N

> <FITNESS>
1.14166

> <GCODE>
4324

> <GraphENC>
4324 72_1_0,80_65_1,121_61_1,86_65_1,83764_1_2,83761_1_2,83758_1_2,83754_38_1,83767_1_2, 72_0_80_0_SINGLE_Xlig:0_Xlig:1,72_2_121_1_SINGLE_scaff:0_MPhosphonite:1,72_1_86_0_SINGLE_Xlig:0_Xlig:1,121_4_83764_0_SINGLE_sArCl:1_hyd:1,121_3_83761_0_SINGLE_sArCl:1_hyd:1,121_2_83758_0_SINGLE_sArCl:1_hyd:1,121_0_83754_0_SINGLE_LPhosphoniteSubR:0_SubArL:1,121_5_83767_0_SINGLE_sArCl:1_hyd:1, 

> <GraphJson>
{
  "graphId": 4324,
  "gVertices": [
    {
      "lstAPs": [
        {
          "id": 110655,
          "atomPositionNumber": 0,
          "atomPositionNumberInMol": 0,
          "apClass": {
            "rule": "Xlig",
            "subClass": 0,
            "bndTyp": "SINGLE"
          },
          "dirVec": {
            "x": -2.3339,
            "y": -0.0087,
            "z": 0.8172
          }
        },
        {
          "id": 110656,
          "atomPositionNumber": 0,
          "atomPositionNumberInMol": 0,
          "apClass": {
            "rule": "Xlig",
            "subClass": 0,
            "bndTyp": "SINGLE"
          },
          "dirVec": {
            "x": 2.336,
            "y": -5.0E-4,
            "z": 0.829
          }
        },
        {
          "id": 110657,
          "atomPositionNumber": 0,
          "atomPositionNumberInMol": 0,
          "apClass": {
            "rule": "scaff",
            "subClass": 0,
            "bndTyp": "SINGLE"
          },
          "dirVec": {
            "x": -0.0095,
            "y": 0.0046,
            "z": -1.7113
          }
        }
      ],
      "lstSymAPs": [
        {
          "symIds": [
            0,
            1
          ]
        }
      ],
      "mol": {
        "atoms": [
          {
            "elSymbol": "Pt",
            "p3d": {
              "x": -0.0098,
              "y": 0.0049,
              "z": 0.6289
            }
          },
          {
            "elSymbol": "C",
            "p3d": {
              "x": -6.0E-4,
              "y": 0.0016,
              "z": 2.5609
            }
          },
          {
            "elSymbol": "O",
            "p3d": {
              "x": 0.0025,
              "y": -0.0041,
              "z": 3.6974
            }
          },
          {
            "elSymbol": "Du",
            "p3d": {
              "x": -0.007,
              "y": 1.0013,
              "z": 0.6372
            }
          },
          {
            "elSymbol": "Du",
            "p3d": {
              "x": -0.0014,
              "y": 0.9902,
              "z": 2.5698
            }
          }
        ],
        "bonds": [
          {
            "atomIds": [
              1,
              2
            ],
            "bo": "TRIPLE"
          },
          {
            "atomIds": [
              0,
              1
            ],
            "bo": "SINGLE"
          },
          {
            "atomIds": [
              3,
              0
            ],
            "bo": "SINGLE"
          },
          {
            "atomIds": [
              4,
              1
            ],
            "bo": "SINGLE"
          }
        ]
      },
      "vertexId": 72,
      "buildingBlockId": 0,
      "buildingBlockType": "SCAFFOLD",
      "isRCV": false,
      "properties": {
        "ATTACHMENT_POINTS": "1#Xlig:0:SINGLE:-2.3339%-0.0087%0.8172,Xlig:0:SINGLE:2.3360%-0.0005%0.8290,scaff:0:SINGLE:-0.0095%0.0046%-1.7113 "
      },
      "uniquefyingPropertyKeys": [],
      "allowedMutationTypes": [
        "DELETE",
        "EXTEND",
        "CHANGEBRANCH",
        "CHANGELINK",
        "ADDLINK",
        "DELETELINK",
        "DELETECHAIN"
      ],
      "vertexType": "MolecularFragment"
    },
    {
      "lstAPs": [
        {
          "id": 110658,
          "atomPositionNumber": 0,
          "atomPositionNumberInMol": 5,
          "apClass": {
            "rule": "Xlig",
            "subClass": 1,
            "bndTyp": "SINGLE"
          },
          "dirVec": {
            "x": -0.1753,
            "y": 0.0948,
            "z": -0.4464
          }
        }
      ],
      "lstSymAPs": [],
      "mol": {
        "atoms": [
          {
            "elSymbol": "O",
            "p3d": {
              "x": -0.3534,
              "y": 2.1044,
              "z": -0.7339
            }
          },
          {
            "elSymbol": "C",
            "p3d": {
              "x": -0.5345,
              "y": 2.7646,
              "z": 0.4801
            }
          },
          {
            "elSymbol": "H",
            "p3d": {
              "x": -0.3728,
              "y": 3.8337,
              "z": 0.2724
            }
          },
          {
            "elSymbol": "H",
            "p3d": {
              "x": 0.1816,
              "y": 2.4161,
              "z": 1.2384
            }
          },
          {
            "elSymbol": "H",
            "p3d": {
              "x": -1.553,
              "y": 2.6149,
              "z": 0.8489
            }
          }
        ],
        "bonds": [
          {
            "atomIds": [
              1,
              2
            ],
            "bo": "SINGLE"
          },
          {
            "atomIds": [
              1,
              3
            ],
            "bo": "SINGLE"
          },
          {
            "atomIds": [
              1,
              4
            ],
            "bo": "SINGLE"
          },
          {
            "atomIds": [
              0,
              1
            ],
            "bo": "SINGLE"
          }
        ]
      },
      "vertexId": 80,
      "buildingBlockId": 64,
      "buildingBlockType": "FRAGMENT",
      "isRCV": false,
      "properties": {
        "ATTACHMENT_POINTS": "1#Xlig:1:SINGLE:-0.1753%0.0948%-0.4464 "
      },
      "uniquefyingPropertyKeys": [],
      "allowedMutationTypes": [
        "DELETE",
        "EXTEND",
        "CHANGEBRANCH",
        "CHANGELINK",
        "ADDLINK",
        "DELETELINK",
        "DELETECHAIN"
      ],
      "vertexType": "MolecularFragment"
    },
    {
      "lstAPs": [
        {
          "id": 110659,
          "atomPositionNumber": 0,
          "atomPositionNumberInMol": 10,
          "apClass": {
            "rule": "LPhosphoniteSubR",
            "subClass": 0,
            "bndTyp": "SINGLE"
          },
          "dirVec": {
            "x": 4.4068,
            "y": 7.1514,
            "z": 3.225
          }
        },
        {
          "id": 110660,
          "atomPositionNumber": 0,
          "atomPositionNumberInMol": 10,
          "apClass": {
            "rule": "MPhosphonite",
            "subClass": 1,
            "bndTyp": "SINGLE"
          },
          "dirVec": {
            "x": 2.0992,
            "y": 9.8558,
            "z": 2.0523
          }
        },
        {
          "id": 110661,
          "atomPositionNumber": 5,
          "atomPositionNumberInMol": 15,
          "apClass": {
            "rule": "sArCl",
            "subClass": 1,
            "bndTyp": "SINGLE"
          },
          "dirVec": {
            "x": 0.6858,
            "y": 4.225,
            "z": 0.5361
          }
        },
        {
          "id": 110662,
          "atomPositionNumber": 6,
          "atomPositionNumberInMol": 16,
          "apClass": {
            "rule": "sArCl",
            "subClass": 1,
            "bndTyp": "SINGLE"
          },
          "dirVec": {
            "x": -1.3527,
            "y": 2.6941,
            "z": 2.4126
          }
        },
        {
          "id": 110663,
          "atomPositionNumber": 7,
          "atomPositionNumberInMol": 17,
          "apClass": {
            "rule": "sArCl",
            "subClass": 1,
            "bndTyp": "SINGLE"
          },
          "dirVec": {
            "x": -1.5783,
            "y": 3.4734,
            "z": 5.4078
          }
        },
        {
          "id": 110664,
          "atomPositionNumber": 8,
          "atomPositionNumberInMol": 18,
          "apClass": {
            "rule": "sArCl",
            "subClass": 1,
            "bndTyp": "SINGLE"
          },
          "dirVec": {
            "x": 0.1066,
            "y": 5.8434,
            "z": 6.538
          }
        }
      ],
      "lstSymAPs": [
        {
          "symIds": [
            2,
            3,
            4,
            5
          ]
        }
      ],
      "mol": {
        "atoms": [
          {
            "elSymbol": "P",
            "p3d": {
              "x": 2.6785,
              "y": 7.6971,
              "z": 2.9618
            }
          },
          {
            "elSymbol": "O",
            "p3d": {
              "x": 1.8393,
              "y": 7.1782,
              "z": 4.337
            }
          },
          {
            "elSymbol": "O",
            "p3d": {
              "x": 2.0482,
              "y": 6.4774,
              "z": 1.9984
            }
          },
          {
            "elSymbol": "C",
            "p3d": {
              "x": 1.0897,
              "y": 6.0606,
              "z": 4.0384
            }
          },
          {
            "elSymbol": "C",
            "p3d": {
              "x": 1.2045,
              "y": 5.6797,
              "z": 2.7196
            }
          },
          {
            "elSymbol": "C",
            "p3d": {
              "x": 0.4857,
              "y": 4.6461,
              "z": 2.2048
            }
          },
          {
            "elSymbol": "C",
            "p3d": {
              "x": -0.3938,
              "y": 3.9649,
              "z": 3.0541
            }
          },
          {
            "elSymbol": "C",
            "p3d": {
              "x": -0.4923,
              "y": 4.3317,
              "z": 4.3806
            }
          },
          {
            "elSymbol": "C",
            "p3d": {
              "x": 0.2319,
              "y": 5.401,
              "z": 4.8933
            }
          }
        ],
        "bonds": [
          {
            "atomIds": [
              1,
              0
            ],
            "bo": "SINGLE"
          },
          {
            "atomIds": [
              2,
              0
            ],
            "bo": "SINGLE"
          },
          {
            "atomIds": [
              3,
              1
            ],
            "bo": "SINGLE"
          },
          {
            "atomIds": [
              3,
              4
            ],
            "bo": "DOUBLE"
          },
          {
            "atomIds": [
              4,
              2
            ],
            "bo": "SINGLE"
          },
          {
            "atomIds": [
              5,
              4
            ],
            "bo": "SINGLE"
          },
          {
            "atomIds": [
              6,
              5
            ],
            "bo": "DOUBLE"
          },
          {
            "atomIds": [
              7,
              6
            ],
            "bo": "SINGLE"
          },
          {
            "atomIds": [
              7,
              8
            ],
            "bo": "DOUBLE"
          },
          {
            "atomIds": [
              8,
              3
            ],
            "bo": "SINGLE"
          }
        ]
      },
      "vertexId": 121,
      "buildingBlockId": 60,
      "buildingBlockType": "FRAGMENT",
      "isRCV": false,
      "properties": {
        "ATTACHMENT_POINTS": "1#LPhosphoniteSubR:0:SINGLE:4.4068%7.1514%3.2250,MPhosphonite:1:SINGLE:2.0992%9.8558%2.0523 6#sArCl:1:SINGLE:0.6858%4.2250%0.5361 7#sArCl:1:SINGLE:-1.3527%2.6941%2.4126 8#sArCl:1:SINGLE:-1.5783%3.4734%5.4078 9#sArCl:1:SINGLE:0.1066%5.8434%6.5380 "
      },
      "uniquefyingPropertyKeys": [],
      "allowedMutationTypes": [
        "DELETE",
        "EXTEND",
        "CHANGEBRANCH",
        "CHANGELINK",
        "ADDLINK",
        "DELETELINK",
        "DELETECHAIN"
      ],
      "vertexType": "MolecularFragment"
    },
    {
      "lstAPs": [
        {
          "id": 110665,
          "atomPositionNumber": 0,
          "atomPositionNumberInMol": 40,
          "apClass": {
            "rule": "Xlig",
            "subClass": 1,
            "bndTyp": "SINGLE"
          },
          "dirVec": {
            "x": -0.1753,
            "y": 0.0948,
            "z": -0.4464
          }
        }
      ],
      "lstSymAPs": [],
      "mol": {
        "atoms": [
          {
            "elSymbol": "O",
            "p3d": {
              "x": -0.3534,
              "y": 2.1044,
              "z": -0.7339
            }
          },
          {
            "elSymbol": "C",
            "p3d": {
              "x": -0.5345,
              "y": 2.7646,
              "z": 0.4801
            }
          },
          {
            "elSymbol": "H",
            "p3d": {
              "x": -0.3728,
              "y": 3.8337,
              "z": 0.2724
            }
          },
          {
            "elSymbol": "H",
            "p3d": {
              "x": 0.1816,
              "y": 2.4161,
              "z": 1.2384
            }
          },
          {
            "elSymbol": "H",
            "p3d": {
              "x": -1.553,
              "y": 2.6149,
              "z": 0.8489
            }
          }
        ],
        "bonds": [
          {
            "atomIds": [
              1,
              2
            ],
            "bo": "SINGLE"
          },
          {
            "atomIds": [
              1,
              3
            ],
            "bo": "SINGLE"
          },
          {
            "atomIds": [
              1,
              4
            ],
            "bo": "SINGLE"
          },
          {
            "atomIds": [
              0,
              1
            ],
            "bo": "SINGLE"
          }
        ]
      },
      "vertexId": 86,
      "buildingBlockId": 64,
      "buildingBlockType": "FRAGMENT",
      "isRCV": false,
      "properties": {
        "ATTACHMENT_POINTS": "1#Xlig:1:SINGLE:-0.1753%0.0948%-0.4464 "
      },
      "uniquefyingPropertyKeys": [],
      "allowedMutationTypes": [
        "DELETE",
        "EXTEND",
        "CHANGEBRANCH",
        "CHANGELINK",
        "ADDLINK",
        "DELETELINK",
        "DELETECHAIN"
      ],
      "vertexType": "MolecularFragment"
    },
    {
      "lstAPs": [
        {
          "id": 110714,
          "atomPositionNumber": 0,
          "atomPositionNumberInMol": 19,
          "apClass": {
            "rule": "hyd",
            "subClass": 1,
            "bndTyp": "SINGLE"
          },
          "dirVec": {
            "x": 0.4589,
            "y": -1.751,
            "z": 0.3869
          }
        }
      ],
      "lstSymAPs": [],
      "mol": {
        "atoms": [
          {
            "elSymbol": "H",
            "p3d": {
              "x": 0.1925,
              "y": -2.5024,
              "z": 1.1483
            }
          }
        ],
        "bonds": []
      },
      "vertexId": 83764,
      "buildingBlockId": 0,
      "buildingBlockType": "CAP",
      "isRCV": false,
      "properties": {
        "ATTACHMENT_POINTS": "1#hyd:1:SINGLE:0.4589%-1.7510%0.3869 "
      },
      "uniquefyingPropertyKeys": [],
      "allowedMutationTypes": [
        "DELETE",
        "EXTEND",
        "CHANGEBRANCH",
        "CHANGELINK",
        "ADDLINK",
        "DELETELINK",
        "DELETECHAIN"
      ],
      "vertexType": "MolecularFragment"
    },
    {
      "lstAPs": [
        {
          "id": 110715,
          "atomPositionNumber": 0,
          "atomPositionNumberInMol": 20,
          "apClass": {
            "rule": "hyd",
            "subClass": 1,
            "bndTyp": "SINGLE"
          },
          "dirVec": {
            "x": 0.4589,
            "y": -1.751,
            "z": 0.3869
          }
        }
      ],
      "lstSymAPs": [],
      "mol": {
        "atoms": [
          {
            "elSymbol": "H",
            "p3d": {
              "x": 0.1925,
              "y": -2.5024,
              "z": 1.1483
            }
          }
        ],
        "bonds": []
      },
      "vertexId": 83761,
      "buildingBlockId": 0,
      "buildingBlockType": "CAP",
      "isRCV": false,
      "properties": {
        "ATTACHMENT_POINTS": "1#hyd:1:SINGLE:0.4589%-1.7510%0.3869 "
      },
      "uniquefyingPropertyKeys": [],
      "allowedMutationTypes": [
        "DELETE",
        "EXTEND",
        "CHANGEBRANCH",
        "CHANGELINK",
        "ADDLINK",
        "DELETELINK",
        "DELETECHAIN"
      ],
      "vertexType": "MolecularFragment"
    },
    {
      "lstAPs": [
        {
          "id": 110716,
          "atomPositionNumber": 0,
          "atomPositionNumberInMol": 21,
          "apClass": {
            "rule": "hyd",
            "subClass": 1,
            "bndTyp": "SINGLE"
          },
          "dirVec": {
            "x": 0.4589,
            "y": -1.751,
            "z": 0.3869
          }
        }
      ],
      "lstSymAPs": [],
      "mol": {
        "atoms": [
          {
            "elSymbol": "H",
            "p3d": {
              "x": 0.1925,
              "y": -2.5024,
              "z": 1.1483
            }
          }
        ],
        "bonds": []
      },
      "vertexId": 83758,
      "buildingBlockId": 0,
      "buildingBlockType": "CAP",
      "isRCV": false,
      "properties": {
        "ATTACHMENT_POINTS": "1#hyd:1:SINGLE:0.4589%-1.7510%0.3869 "
      },
      "uniquefyingPropertyKeys": [],
      "allowedMutationTypes": [
        "DELETE",
        "EXTEND",
        "CHANGEBRANCH",
        "CHANGELINK",
        "ADDLINK",
        "DELETELINK",
        "DELETECHAIN"
      ],
      "vertexType": "MolecularFragment"
    },
    {
      "lstAPs": [
        {
          "id": 110717,
          "atomPositionNumber": 0,
          "atomPositionNumberInMol": 22,
          "apClass": {
            "rule": "SubArL",
            "subClass": 1,
            "bndTyp": "SINGLE"
          },
          "dirVec": {
            "x": 0.2957,
            "y": 0.3816,
            "z": -0.6358
          }
        }
      ],
      "lstSymAPs": [],
      "mol": {
        "atoms": [
          {
            "elSymbol": "C",
            "p3d": {
              "x": 1.7088,
              "y": 0.551,
              "z": -1.2192
            }
          },
          {
            "elSymbol": "C",
            "p3d": {
              "x": 4.2535,
              "y": 0.8673,
              "z": -2.2548
            }
          },
          {
            "elSymbol": "C",
            "p3d": {
              "x": 2.3329,
              "y": 1.7979,
              "z": -1.1377
            }
          },
          {
            "elSymbol": "C",
            "p3d": {
              "x": 2.3315,
              "y": -0.5114,
              "z": -1.8171
            }
          },
          {
            "elSymbol": "C",
            "p3d": {
              "x": 3.6062,
              "y": -0.3595,
              "z": -2.3299
            }
          },
          {
            "elSymbol": "C",
            "p3d": {
              "x": 3.6205,
              "y": 1.9526,
              "z": -1.657
            }
          },
          {
            "elSymbol": "H",
            "p3d": {
              "x": 4.116,
              "y": -1.2062,
              "z": -2.8187
            }
          },
          {
            "elSymbol": "H",
            "p3d": {
              "x": 4.1193,
              "y": 2.9144,
              "z": -1.5883
            }
          },
          {
            "elSymbol": "H",
            "p3d": {
              "x": 5.2485,
              "y": 0.9961,
              "z": -2.6688
            }
          },
          {
            "elSymbol": "C",
            "p3d": {
              "x": 1.6389,
              "y": 2.9732,
              "z": -0.4581
            }
          },
          {
            "elSymbol": "H",
            "p3d": {
              "x": 2.3787,
              "y": 3.6649,
              "z": -0.0604
            }
          },
          {
            "elSymbol": "H",
            "p3d": {
              "x": 1.0049,
              "y": 2.601,
              "z": 0.3676
            }
          },
          {
            "elSymbol": "H",
            "p3d": {
              "x": 1.0013,
              "y": 3.4961,
              "z": -1.199
            }
          },
          {
            "elSymbol": "C",
            "p3d": {
              "x": 1.6397,
              "y": -1.8757,
              "z": -1.9164
            }
          },
          {
            "elSymbol": "H",
            "p3d": {
              "x": 2.3747,
              "y": -2.6603,
              "z": -1.9613
            }
          },
          {
            "elSymbol": "H",
            "p3d": {
              "x": 1.0044,
              "y": -1.9015,
              "z": -2.8054
            }
          },
          {
            "elSymbol": "H",
            "p3d": {
              "x": 1.0057,
              "y": -2.0243,
              "z": -1.0149
            }
          }
        ],
        "bonds": [
          {
            "atomIds": [
              0,
              3
            ],
            "bo": "SINGLE"
          },
          {
            "atomIds": [
              3,
              4
            ],
            "bo": "DOUBLE"
          },
          {
            "atomIds": [
              1,
              4
            ],
            "bo": "SINGLE"
          },
          {
            "atomIds": [
              1,
              5
            ],
            "bo": "DOUBLE"
          },
          {
            "atomIds": [
              2,
              5
            ],
            "bo": "SINGLE"
          },
          {
            "atomIds": [
              0,
              2
            ],
            "bo": "DOUBLE"
          },
          {
            "atomIds": [
              4,
              6
            ],
            "bo": "SINGLE"
          },
          {
            "atomIds": [
              5,
              7
            ],
            "bo": "SINGLE"
          },
          {
            "atomIds": [
              1,
              8
            ],
            "bo": "SINGLE"
          },
          {
            "atomIds": [
              9,
              10
            ],
            "bo": "SINGLE"
          },
          {
            "atomIds": [
              9,
              11
            ],
            "bo": "SINGLE"
          },
          {
            "atomIds": [
              9,
              12
            ],
            "bo": "SINGLE"
          },
          {
            "atomIds": [
              2,
              9
            ],
            "bo": "SINGLE"
          },
          {
            "atomIds": [
              13,
              14
            ],
            "bo": "SINGLE"
          },
          {
            "atomIds": [
              13,
              15
            ],
            "bo": "SINGLE"
          },
          {
            "atomIds": [
              13,
              16
            ],
            "bo": "SINGLE"
          },
          {
            "atomIds": [
              3,
              13
            ],
            "bo": "SINGLE"
          }
        ]
      },
      "vertexId": 83754,
      "buildingBlockId": 37,
      "buildingBlockType": "FRAGMENT",
      "isRCV": false,
      "properties": {
        "ATTACHMENT_POINTS": "1#SubArL:1:SINGLE:0.2957%0.3816%-0.6358 "
      },
      "uniquefyingPropertyKeys": [],
      "allowedMutationTypes": [
        "DELETE",
        "EXTEND",
        "CHANGEBRANCH",
        "CHANGELINK",
        "ADDLINK",
        "DELETELINK",
        "DELETECHAIN"
      ],
      "vertexType": "MolecularFragment"
    },
    {
      "lstAPs": [
        {
          "id": 110718,
          "atomPositionNumber": 0,
          "atomPositionNumberInMol": 39,
          "apClass": {
            "rule": "hyd",
            "subClass": 1,
            "bndTyp": "SINGLE"
          },
          "dirVec": {
            "x": 0.4589,
            "y": -1.751,
            "z": 0.3869
          }
        }
      ],
      "lstSymAPs": [],
      "mol": {
        "atoms": [
          {
            "elSymbol": "H",
            "p3d": {
              "x": 0.1925,
              "y": -2.5024,
              "z": 1.1483
            }
          }
        ],
        "bonds": []
      },
      "vertexId": 83767,
      "buildingBlockId": 0,
      "buildingBlockType": "CAP",
      "isRCV": false,
      "properties": {
        "ATTACHMENT_POINTS": "1#hyd:1:SINGLE:0.4589%-1.7510%0.3869 "
      },
      "uniquefyingPropertyKeys": [],
      "allowedMutationTypes": [
        "DELETE",
        "EXTEND",
        "CHANGEBRANCH",
        "CHANGELINK",
        "ADDLINK",
        "DELETELINK",
        "DELETECHAIN"
      ],
      "vertexType": "MolecularFragment"
    }
  ],
  "gEdges": [
    {
      "srcAPID": 110655,
      "trgAPID": 110658,
      "bondType": "SINGLE"
    },
    {
      "srcAPID": 110657,
      "trgAPID": 110660,
      "bondType": "SINGLE"
    },
    {
      "srcAPID": 110656,
      "trgAPID": 110665,
      "bondType": "SINGLE"
    },
    {
      "srcAPID": 110663,
      "trgAPID": 110714,
      "bondType": "SINGLE"
    },
    {
      "srcAPID": 110662,
      "trgAPID": 110715,
      "bondType": "SINGLE"
    },
    {
      "srcAPID": 110661,
      "trgAPID": 110716,
      "bondType": "SINGLE"
    },
    {
      "srcAPID": 110659,
      "trgAPID": 110717,
      "bondType": "SINGLE"
    },
    {
      "srcAPID": 110664,
      "trgAPID": 110718,
      "bondType": "SINGLE"
    }
  ],
  "gRings": [],
  "symVertices": []
}

> <SMILES>
[Pt](C#O)(OC([H])([H])[H])([P]1(OC2=C(O1)C(=C(C(=C2[H])[H])[H])[H])C=3C(=C(C(=C(C3C([H])([H])[H])[H])[H])[H])C([H])([H])[H])OC([H])([H])[H]

$$$$
