M00002295
  CDK     04222209303D

 59 62  0  0  0  0  0  0  0  0999 V2000
   -2.5087    0.1908    0.1679 Pt  0  0  0  0  0  0  0  0  0  0  0  0
   -4.4327    0.0348   -0.0004 C   0  0  0  0  0  0  0  0  0  0  0  0
   -5.5610   -0.1208   -0.0970 O   0  0  0  0  0  0  0  0  0  0  0  0
   -2.5427    2.2534    0.4076 O   0  0  0  0  0  0  0  0  0  0  0  0
   -2.5771    2.9166   -0.8307 C   0  0  0  0  0  0  0  0  0  0  0  0
   -2.9154    3.9410   -0.6188 H   0  0  0  0  0  0  0  0  0  0  0  0
   -3.2834    2.4195   -1.5078 H   0  0  0  0  0  0  0  0  0  0  0  0
   -1.5709    2.9368   -1.2717 H   0  0  0  0  0  0  0  0  0  0  0  0
   -0.2212    0.1347    0.3186 P   0  0  0  0  0  0  0  0  0  0  0  0
    0.4884   -0.3346   -1.3448 C   0  0  0  0  0  0  0  0  0  0  0  0
    1.1115   -1.5226   -1.2074 C   0  0  0  0  0  0  0  0  0  0  0  0
    1.1295   -2.1026    0.1787 C   0  0  0  0  0  0  0  0  0  0  0  0
    0.5110   -1.3799    1.1332 C   0  0  0  0  0  0  0  0  0  0  0  0
    0.2732    0.5154   -2.5054 C   0  0  0  0  0  0  0  0  0  0  0  0
   -0.1373    2.1554   -4.7408 C   0  0  0  0  0  0  0  0  0  0  0  0
    1.3704    1.0861   -3.1728 C   0  0  0  0  0  0  0  0  0  0  0  0
   -1.0325    0.7728   -2.9617 C   0  0  0  0  0  0  0  0  0  0  0  0
   -1.2307    1.5877   -4.0780 C   0  0  0  0  0  0  0  0  0  0  0  0
    1.1607    1.9045   -4.2854 C   0  0  0  0  0  0  0  0  0  0  0  0
    2.3805    0.8958   -2.8162 H   0  0  0  0  0  0  0  0  0  0  0  0
   -1.8943    0.3216   -2.4495 H   0  0  0  0  0  0  0  0  0  0  0  0
   -2.2419    1.7826   -4.4340 H   0  0  0  0  0  0  0  0  0  0  0  0
    2.0123    2.3494   -4.7986 H   0  0  0  0  0  0  0  0  0  0  0  0
   -0.2972    2.7928   -5.6085 H   0  0  0  0  0  0  0  0  0  0  0  0
    1.8074   -3.4014    0.4225 C   0  0  0  0  0  0  0  0  0  0  0  0
    1.8079   -3.6700    1.4921 H   0  0  0  0  0  0  0  0  0  0  0  0
    1.2955   -4.2212   -0.1055 H   0  0  0  0  0  0  0  0  0  0  0  0
    2.8539   -3.3926    0.0897 H   0  0  0  0  0  0  0  0  0  0  0  0
    0.7097    1.5831    0.9758 C   0  0  0  0  0  0  0  0  0  0  0  0
    2.1580    3.7193    2.0113 C   0  0  0  0  0  0  0  0  0  0  0  0
    2.1070    1.5771    0.8790 C   0  0  0  0  0  0  0  0  0  0  0  0
    0.0287    2.6395    1.5759 C   0  0  0  0  0  0  0  0  0  0  0  0
    0.7659    3.7137    2.0978 C   0  0  0  0  0  0  0  0  0  0  0  0
    2.8304    2.6515    1.3994 C   0  0  0  0  0  0  0  0  0  0  0  0
    2.6491    0.7567    0.4051 H   0  0  0  0  0  0  0  0  0  0  0  0
   -1.0774    2.6715    1.6342 H   0  0  0  0  0  0  0  0  0  0  0  0
    0.2410    4.5444    2.5686 H   0  0  0  0  0  0  0  0  0  0  0  0
    3.9163    2.6633    1.3307 H   0  0  0  0  0  0  0  0  0  0  0  0
    2.7274    4.5552    2.4175 H   0  0  0  0  0  0  0  0  0  0  0  0
    1.7531   -2.2682   -2.3197 C   0  0  0  0  0  0  0  0  0  0  0  0
    1.6330   -1.7563   -3.2881 H   0  0  0  0  0  0  0  0  0  0  0  0
    2.8322   -2.3993   -2.1536 H   0  0  0  0  0  0  0  0  0  0  0  0
    1.3172   -3.2729   -2.4339 H   0  0  0  0  0  0  0  0  0  0  0  0
    0.3596   -1.6194    2.5622 C   0  0  0  0  0  0  0  0  0  0  0  0
    0.0809   -2.1028    5.3054 C   0  0  0  0  0  0  0  0  0  0  0  0
    1.1883   -0.9531    3.4808 C   0  0  0  0  0  0  0  0  0  0  0  0
   -0.6116   -2.5246    3.0210 C   0  0  0  0  0  0  0  0  0  0  0  0
   -0.7470   -2.7618    4.3907 C   0  0  0  0  0  0  0  0  0  0  0  0
    1.0455   -1.1990    4.8486 C   0  0  0  0  0  0  0  0  0  0  0  0
    1.9371   -0.2448    3.1302 H   0  0  0  0  0  0  0  0  0  0  0  0
   -1.2645   -3.0292    2.3043 H   0  0  0  0  0  0  0  0  0  0  0  0
   -1.5040   -3.4601    4.7457 H   0  0  0  0  0  0  0  0  0  0  0  0
    1.6862   -0.6817    5.5608 H   0  0  0  0  0  0  0  0  0  0  0  0
   -0.0287   -2.2895    6.3719 H   0  0  0  0  0  0  0  0  0  0  0  0
   -2.8078   -2.1007    0.0020 S   0  0  0  0  0  0  0  0  0  0  0  0
   -2.4709   -2.2829   -1.7716 C   0  0  0  0  0  0  0  0  0  0  0  0
   -1.4929   -2.7492   -1.9261 H   0  0  0  0  0  0  0  0  0  0  0  0
   -2.4772   -1.3066   -2.2775 H   0  0  0  0  0  0  0  0  0  0  0  0
   -3.2395   -2.9193   -2.2236 H   0  0  0  0  0  0  0  0  0  0  0  0
  2  3  3  0  0  0  0
  1  2  1  0  0  0  0
  5  6  1  0  0  0  0
  5  7  1  0  0  0  0
  5  8  1  0  0  0  0
  4  5  1  0  0  0  0
  1  4  1  0  0  0  0
 10  9  1  0  0  0  0
 11 10  2  0  0  0  0
 12 11  1  0  0  0  0
 13  9  1  0  0  0  0
 12 13  2  0  0  0  0
  1  9  1  0  0  0  0
 14 17  1  0  0  0  0
 17 18  2  0  0  0  0
 15 18  1  0  0  0  0
 15 19  2  0  0  0  0
 16 19  1  0  0  0  0
 14 16  2  0  0  0  0
 18 22  1  0  0  0  0
 19 23  1  0  0  0  0
 15 24  1  0  0  0  0
 16 20  1  0  0  0  0
 17 21  1  0  0  0  0
 10 14  1  0  0  0  0
 25 26  1  0  0  0  0
 25 27  1  0  0  0  0
 25 28  1  0  0  0  0
 12 25  1  0  0  0  0
 29 32  1  0  0  0  0
 32 33  2  0  0  0  0
 30 33  1  0  0  0  0
 30 34  2  0  0  0  0
 31 34  1  0  0  0  0
 29 31  2  0  0  0  0
 33 37  1  0  0  0  0
 34 38  1  0  0  0  0
 30 39  1  0  0  0  0
 31 35  1  0  0  0  0
 32 36  1  0  0  0  0
  9 29  1  0  0  0  0
 40 41  1  0  0  0  0
 40 42  1  0  0  0  0
 40 43  1  0  0  0  0
 11 40  1  0  0  0  0
 44 47  1  0  0  0  0
 47 48  2  0  0  0  0
 45 48  1  0  0  0  0
 45 49  2  0  0  0  0
 46 49  1  0  0  0  0
 44 46  2  0  0  0  0
 48 52  1  0  0  0  0
 49 53  1  0  0  0  0
 45 54  1  0  0  0  0
 46 50  1  0  0  0  0
 47 51  1  0  0  0  0
 13 44  1  0  0  0  0
 56 57  1  0  0  0  0
 56 58  1  0  0  0  0
 56 59  1  0  0  0  0
 55 56  1  0  0  0  0
  1 55  1  0  0  0  0
M  END
> <PM6_ENERGY>
107.677

> <UID>
QFMCQPINLOBYRC-UYCOOMGTNA-M

> <FITNESS>
1.14307

> <GCODE>
2948

> <GraphENC>
2948 72_1_0,80_65_1,116_56_1,85_64_1,51460_36_1,55651_31_1,51452_36_1,51464_31_1,55650_36_1, 72_0_80_0_SINGLE_Xlig:0_Xlig:1,72_2_116_1_SINGLE_scaff:0_MPhosphole:1,72_1_85_0_SINGLE_Xlig:0_Xlig:1,116_2_51460_0_SINGLE_LPhospholeSubAlpha:0_SubArS:1,116_4_55651_0_SINGLE_LPhospholeSubBeta:0_SubRS:1,116_0_51452_0_SINGLE_LPhospholeSubR:0_SubArS:1,116_3_51464_0_SINGLE_LPhospholeSubBeta:0_SubRS:1,116_5_55650_0_SINGLE_LPhospholeSubAlpha:0_SubArS:1, SymmetricSet [symIds=[51460, 55650]] SymmetricSet [symIds=[55651, 51464]] 

> <GraphJson>
{
  "graphId": 2948,
  "gVertices": [
    {
      "lstAPs": [
        {
          "id": 73970,
          "atomPositionNumber": 0,
          "atomPositionNumberInMol": 0,
          "apClass": {
            "rule": "Xlig",
            "subClass": 0,
            "bndTyp": "SINGLE"
          },
          "dirVec": {
            "x": -2.3339,
            "y": -0.0087,
            "z": 0.8172
          }
        },
        {
          "id": 73971,
          "atomPositionNumber": 0,
          "atomPositionNumberInMol": 0,
          "apClass": {
            "rule": "Xlig",
            "subClass": 0,
            "bndTyp": "SINGLE"
          },
          "dirVec": {
            "x": 2.336,
            "y": -5.0E-4,
            "z": 0.829
          }
        },
        {
          "id": 73972,
          "atomPositionNumber": 0,
          "atomPositionNumberInMol": 0,
          "apClass": {
            "rule": "scaff",
            "subClass": 0,
            "bndTyp": "SINGLE"
          },
          "dirVec": {
            "x": -0.0095,
            "y": 0.0046,
            "z": -1.7113
          }
        }
      ],
      "lstSymAPs": [
        {
          "symIds": [
            0,
            1
          ]
        }
      ],
      "mol": {
        "atoms": [
          {
            "elSymbol": "Pt",
            "p3d": {
              "x": -0.0098,
              "y": 0.0049,
              "z": 0.6289
            }
          },
          {
            "elSymbol": "C",
            "p3d": {
              "x": -6.0E-4,
              "y": 0.0016,
              "z": 2.5609
            }
          },
          {
            "elSymbol": "O",
            "p3d": {
              "x": 0.0025,
              "y": -0.0041,
              "z": 3.6974
            }
          },
          {
            "elSymbol": "Du",
            "p3d": {
              "x": -0.007,
              "y": 1.0013,
              "z": 0.6372
            }
          },
          {
            "elSymbol": "Du",
            "p3d": {
              "x": -0.0014,
              "y": 0.9902,
              "z": 2.5698
            }
          }
        ],
        "bonds": [
          {
            "atomIds": [
              1,
              2
            ],
            "bo": "TRIPLE"
          },
          {
            "atomIds": [
              0,
              1
            ],
            "bo": "SINGLE"
          },
          {
            "atomIds": [
              3,
              0
            ],
            "bo": "SINGLE"
          },
          {
            "atomIds": [
              4,
              1
            ],
            "bo": "SINGLE"
          }
        ]
      },
      "vertexId": 72,
      "buildingBlockId": 0,
      "buildingBlockType": "SCAFFOLD",
      "isRCV": false,
      "properties": {
        "ATTACHMENT_POINTS": "1#Xlig:0:SINGLE:-2.3339%-0.0087%0.8172,Xlig:0:SINGLE:2.3360%-0.0005%0.8290,scaff:0:SINGLE:-0.0095%0.0046%-1.7113 "
      },
      "uniquefyingPropertyKeys": [],
      "allowedMutationTypes": [
        "DELETE",
        "EXTEND",
        "CHANGEBRANCH",
        "CHANGELINK",
        "ADDLINK",
        "DELETELINK",
        "DELETECHAIN"
      ],
      "vertexType": "MolecularFragment"
    },
    {
      "lstAPs": [
        {
          "id": 73973,
          "atomPositionNumber": 0,
          "atomPositionNumberInMol": 5,
          "apClass": {
            "rule": "Xlig",
            "subClass": 1,
            "bndTyp": "SINGLE"
          },
          "dirVec": {
            "x": -0.1753,
            "y": 0.0948,
            "z": -0.4464
          }
        }
      ],
      "lstSymAPs": [],
      "mol": {
        "atoms": [
          {
            "elSymbol": "O",
            "p3d": {
              "x": -0.3534,
              "y": 2.1044,
              "z": -0.7339
            }
          },
          {
            "elSymbol": "C",
            "p3d": {
              "x": -0.5345,
              "y": 2.7646,
              "z": 0.4801
            }
          },
          {
            "elSymbol": "H",
            "p3d": {
              "x": -0.3728,
              "y": 3.8337,
              "z": 0.2724
            }
          },
          {
            "elSymbol": "H",
            "p3d": {
              "x": 0.1816,
              "y": 2.4161,
              "z": 1.2384
            }
          },
          {
            "elSymbol": "H",
            "p3d": {
              "x": -1.553,
              "y": 2.6149,
              "z": 0.8489
            }
          }
        ],
        "bonds": [
          {
            "atomIds": [
              1,
              2
            ],
            "bo": "SINGLE"
          },
          {
            "atomIds": [
              1,
              3
            ],
            "bo": "SINGLE"
          },
          {
            "atomIds": [
              1,
              4
            ],
            "bo": "SINGLE"
          },
          {
            "atomIds": [
              0,
              1
            ],
            "bo": "SINGLE"
          }
        ]
      },
      "vertexId": 80,
      "buildingBlockId": 64,
      "buildingBlockType": "FRAGMENT",
      "isRCV": false,
      "properties": {
        "ATTACHMENT_POINTS": "1#Xlig:1:SINGLE:-0.1753%0.0948%-0.4464 "
      },
      "uniquefyingPropertyKeys": [],
      "allowedMutationTypes": [
        "DELETE",
        "EXTEND",
        "CHANGEBRANCH",
        "CHANGELINK",
        "ADDLINK",
        "DELETELINK",
        "DELETECHAIN"
      ],
      "vertexType": "MolecularFragment"
    },
    {
      "lstAPs": [
        {
          "id": 73974,
          "atomPositionNumber": 0,
          "atomPositionNumberInMol": 10,
          "apClass": {
            "rule": "LPhospholeSubR",
            "subClass": 0,
            "bndTyp": "SINGLE"
          },
          "dirVec": {
            "x": -0.1583,
            "y": -3.1445,
            "z": -2.0557
          }
        },
        {
          "id": 73975,
          "atomPositionNumber": 0,
          "atomPositionNumberInMol": 10,
          "apClass": {
            "rule": "MPhosphole",
            "subClass": 1,
            "bndTyp": "SINGLE"
          },
          "dirVec": {
            "x": -0.003,
            "y": -0.0033,
            "z": 0.0013
          }
        },
        {
          "id": 73976,
          "atomPositionNumber": 1,
          "atomPositionNumberInMol": 11,
          "apClass": {
            "rule": "LPhospholeSubAlpha",
            "subClass": 0,
            "bndTyp": "SINGLE"
          },
          "dirVec": {
            "x": 3.2115,
            "y": -2.5535,
            "z": -1.0585
          }
        },
        {
          "id": 73977,
          "atomPositionNumber": 2,
          "atomPositionNumberInMol": 12,
          "apClass": {
            "rule": "LPhospholeSubBeta",
            "subClass": 0,
            "bndTyp": "SINGLE"
          },
          "dirVec": {
            "x": 4.2656,
            "y": -1.1283,
            "z": -3.6461
          }
        },
        {
          "id": 73978,
          "atomPositionNumber": 3,
          "atomPositionNumberInMol": 13,
          "apClass": {
            "rule": "LPhospholeSubBeta",
            "subClass": 0,
            "bndTyp": "SINGLE"
          },
          "dirVec": {
            "x": 2.053,
            "y": 0.1072,
            "z": -5.2957
          }
        },
        {
          "id": 73979,
          "atomPositionNumber": 4,
          "atomPositionNumberInMol": 14,
          "apClass": {
            "rule": "LPhospholeSubAlpha",
            "subClass": 0,
            "bndTyp": "SINGLE"
          },
          "dirVec": {
            "x": -0.7998,
            "y": -0.3182,
            "z": -4.0879
          }
        }
      ],
      "lstSymAPs": [
        {
          "symIds": [
            2,
            5
          ]
        },
        {
          "symIds": [
            3,
            4
          ]
        }
      ],
      "mol": {
        "atoms": [
          {
            "elSymbol": "P",
            "p3d": {
              "x": 0.6287,
              "y": -1.5145,
              "z": -1.8705
            }
          },
          {
            "elSymbol": "C",
            "p3d": {
              "x": 2.405,
              "y": -1.8003,
              "z": -2.0775
            }
          },
          {
            "elSymbol": "C",
            "p3d": {
              "x": 2.8079,
              "y": -1.1982,
              "z": -3.1964
            }
          },
          {
            "elSymbol": "C",
            "p3d": {
              "x": 1.7253,
              "y": -0.6,
              "z": -4.0254
            }
          },
          {
            "elSymbol": "C",
            "p3d": {
              "x": 0.5038,
              "y": -0.7649,
              "z": -3.5177
            }
          }
        ],
        "bonds": [
          {
            "atomIds": [
              1,
              0
            ],
            "bo": "SINGLE"
          },
          {
            "atomIds": [
              2,
              1
            ],
            "bo": "DOUBLE"
          },
          {
            "atomIds": [
              3,
              2
            ],
            "bo": "SINGLE"
          },
          {
            "atomIds": [
              4,
              0
            ],
            "bo": "SINGLE"
          },
          {
            "atomIds": [
              3,
              4
            ],
            "bo": "DOUBLE"
          }
        ]
      },
      "vertexId": 116,
      "buildingBlockId": 55,
      "buildingBlockType": "FRAGMENT",
      "isRCV": false,
      "properties": {
        "ATTACHMENT_POINTS": "1#LPhospholeSubR:0:SINGLE:-0.1583%-3.1445%-2.0557,MPhosphole:1:SINGLE:-0.0030%-0.0033%0.0013 2#LPhospholeSubAlpha:0:SINGLE:3.2115%-2.5535%-1.0585 3#LPhospholeSubBeta:0:SINGLE:4.2656%-1.1283%-3.6461 4#LPhospholeSubBeta:0:SINGLE:2.0530%0.1072%-5.2957 5#LPhospholeSubAlpha:0:SINGLE:-0.7998%-0.3182%-4.0879 "
      },
      "uniquefyingPropertyKeys": [],
      "allowedMutationTypes": [
        "DELETE",
        "EXTEND",
        "CHANGEBRANCH",
        "CHANGELINK",
        "ADDLINK",
        "DELETELINK",
        "DELETECHAIN"
      ],
      "vertexType": "MolecularFragment"
    },
    {
      "lstAPs": [
        {
          "id": 73980,
          "atomPositionNumber": 0,
          "atomPositionNumberInMol": 56,
          "apClass": {
            "rule": "Xlig",
            "subClass": 1,
            "bndTyp": "SINGLE"
          },
          "dirVec": {
            "x": -0.102,
            "y": 0.0185,
            "z": -1.0265
          }
        }
      ],
      "lstSymAPs": [],
      "mol": {
        "atoms": [
          {
            "elSymbol": "S",
            "p3d": {
              "x": -0.3267,
              "y": 2.3403,
              "z": -1.0022
            }
          },
          {
            "elSymbol": "C",
            "p3d": {
              "x": -0.626,
              "y": 2.4866,
              "z": 0.7805
            }
          },
          {
            "elSymbol": "H",
            "p3d": {
              "x": 0.1766,
              "y": 3.089,
              "z": 1.2414
            }
          },
          {
            "elSymbol": "H",
            "p3d": {
              "x": -0.651,
              "y": 1.5065,
              "z": 1.2643
            }
          },
          {
            "elSymbol": "H",
            "p3d": {
              "x": -1.5658,
              "y": 2.981,
              "z": 0.9515
            }
          }
        ],
        "bonds": [
          {
            "atomIds": [
              1,
              2
            ],
            "bo": "SINGLE"
          },
          {
            "atomIds": [
              1,
              3
            ],
            "bo": "SINGLE"
          },
          {
            "atomIds": [
              1,
              4
            ],
            "bo": "SINGLE"
          },
          {
            "atomIds": [
              0,
              1
            ],
            "bo": "SINGLE"
          }
        ]
      },
      "vertexId": 85,
      "buildingBlockId": 63,
      "buildingBlockType": "FRAGMENT",
      "isRCV": false,
      "properties": {
        "ATTACHMENT_POINTS": "1#Xlig:1:SINGLE:-0.1020%0.0185%-1.0265 "
      },
      "uniquefyingPropertyKeys": [],
      "allowedMutationTypes": [
        "DELETE",
        "EXTEND",
        "CHANGEBRANCH",
        "CHANGELINK",
        "ADDLINK",
        "DELETELINK",
        "DELETECHAIN"
      ],
      "vertexType": "MolecularFragment"
    },
    {
      "lstAPs": [
        {
          "id": 74029,
          "atomPositionNumber": 0,
          "atomPositionNumberInMol": 15,
          "apClass": {
            "rule": "SubArS",
            "subClass": 1,
            "bndTyp": "SINGLE"
          },
          "dirVec": {
            "x": 0.2973,
            "y": 0.3873,
            "z": -0.6389
          }
        }
      ],
      "lstSymAPs": [],
      "mol": {
        "atoms": [
          {
            "elSymbol": "C",
            "p3d": {
              "x": 1.6995,
              "y": 0.5593,
              "z": -1.2083
            }
          },
          {
            "elSymbol": "C",
            "p3d": {
              "x": 4.2563,
              "y": 0.8754,
              "z": -2.2592
            }
          },
          {
            "elSymbol": "C",
            "p3d": {
              "x": 2.3334,
              "y": 1.79,
              "z": -1.1338
            }
          },
          {
            "elSymbol": "C",
            "p3d": {
              "x": 2.3422,
              "y": -0.5107,
              "z": -1.8125
            }
          },
          {
            "elSymbol": "C",
            "p3d": {
              "x": 3.612,
              "y": -0.3527,
              "z": -2.3321
            }
          },
          {
            "elSymbol": "C",
            "p3d": {
              "x": 3.6062,
              "y": 1.9513,
              "z": -1.6526
            }
          },
          {
            "elSymbol": "H",
            "p3d": {
              "x": 1.833,
              "y": 2.6461,
              "z": -0.6488
            }
          },
          {
            "elSymbol": "H",
            "p3d": {
              "x": 1.8361,
              "y": -1.4773,
              "z": -1.887
            }
          },
          {
            "elSymbol": "H",
            "p3d": {
              "x": 4.115,
              "y": -1.2043,
              "z": -2.8152
            }
          },
          {
            "elSymbol": "H",
            "p3d": {
              "x": 4.1097,
              "y": 2.9214,
              "z": -1.5842
            }
          },
          {
            "elSymbol": "H",
            "p3d": {
              "x": 5.2498,
              "y": 0.9926,
              "z": -2.665
            }
          }
        ],
        "bonds": [
          {
            "atomIds": [
              0,
              3
            ],
            "bo": "SINGLE"
          },
          {
            "atomIds": [
              3,
              4
            ],
            "bo": "DOUBLE"
          },
          {
            "atomIds": [
              1,
              4
            ],
            "bo": "SINGLE"
          },
          {
            "atomIds": [
              1,
              5
            ],
            "bo": "DOUBLE"
          },
          {
            "atomIds": [
              2,
              5
            ],
            "bo": "SINGLE"
          },
          {
            "atomIds": [
              0,
              2
            ],
            "bo": "DOUBLE"
          },
          {
            "atomIds": [
              4,
              8
            ],
            "bo": "SINGLE"
          },
          {
            "atomIds": [
              5,
              9
            ],
            "bo": "SINGLE"
          },
          {
            "atomIds": [
              1,
              10
            ],
            "bo": "SINGLE"
          },
          {
            "atomIds": [
              2,
              6
            ],
            "bo": "SINGLE"
          },
          {
            "atomIds": [
              3,
              7
            ],
            "bo": "SINGLE"
          }
        ]
      },
      "vertexId": 51460,
      "buildingBlockId": 35,
      "buildingBlockType": "FRAGMENT",
      "isRCV": false,
      "properties": {
        "ATTACHMENT_POINTS": "1#SubArS:1:SINGLE:0.2973%0.3873%-0.6389 "
      },
      "uniquefyingPropertyKeys": [],
      "allowedMutationTypes": [
        "DELETE",
        "EXTEND",
        "CHANGEBRANCH",
        "CHANGELINK",
        "ADDLINK",
        "DELETELINK",
        "DELETECHAIN"
      ],
      "vertexType": "MolecularFragment"
    },
    {
      "lstAPs": [
        {
          "id": 74030,
          "atomPositionNumber": 0,
          "atomPositionNumberInMol": 26,
          "apClass": {
            "rule": "SubRS",
            "subClass": 1,
            "bndTyp": "SINGLE"
          },
          "dirVec": {
            "x": 0.2865,
            "y": 0.3959,
            "z": -0.6387
          }
        }
      ],
      "lstSymAPs": [],
      "mol": {
        "atoms": [
          {
            "elSymbol": "C",
            "p3d": {
              "x": 0.3969,
              "y": -0.0496,
              "z": 0.8235
            }
          },
          {
            "elSymbol": "H",
            "p3d": {
              "x": -0.6146,
              "y": -0.163,
              "z": 1.2402
            }
          },
          {
            "elSymbol": "H",
            "p3d": {
              "x": 0.9335,
              "y": -0.9979,
              "z": 0.8998
            }
          },
          {
            "elSymbol": "H",
            "p3d": {
              "x": 0.9252,
              "y": 0.7237,
              "z": 1.3995
            }
          }
        ],
        "bonds": [
          {
            "atomIds": [
              0,
              1
            ],
            "bo": "SINGLE"
          },
          {
            "atomIds": [
              0,
              2
            ],
            "bo": "SINGLE"
          },
          {
            "atomIds": [
              0,
              3
            ],
            "bo": "SINGLE"
          }
        ]
      },
      "vertexId": 55651,
      "buildingBlockId": 30,
      "buildingBlockType": "FRAGMENT",
      "isRCV": false,
      "properties": {
        "ATTACHMENT_POINTS": "1#SubRS:1:SINGLE:0.2865%0.3959%-0.6387 "
      },
      "uniquefyingPropertyKeys": [],
      "allowedMutationTypes": [
        "DELETE",
        "EXTEND",
        "CHANGEBRANCH",
        "CHANGELINK",
        "ADDLINK",
        "DELETELINK",
        "DELETECHAIN"
      ],
      "vertexType": "MolecularFragment"
    },
    {
      "lstAPs": [
        {
          "id": 74031,
          "atomPositionNumber": 0,
          "atomPositionNumberInMol": 30,
          "apClass": {
            "rule": "SubArS",
            "subClass": 1,
            "bndTyp": "SINGLE"
          },
          "dirVec": {
            "x": 0.2973,
            "y": 0.3873,
            "z": -0.6389
          }
        }
      ],
      "lstSymAPs": [],
      "mol": {
        "atoms": [
          {
            "elSymbol": "C",
            "p3d": {
              "x": 1.6995,
              "y": 0.5593,
              "z": -1.2083
            }
          },
          {
            "elSymbol": "C",
            "p3d": {
              "x": 4.2563,
              "y": 0.8754,
              "z": -2.2592
            }
          },
          {
            "elSymbol": "C",
            "p3d": {
              "x": 2.3334,
              "y": 1.79,
              "z": -1.1338
            }
          },
          {
            "elSymbol": "C",
            "p3d": {
              "x": 2.3422,
              "y": -0.5107,
              "z": -1.8125
            }
          },
          {
            "elSymbol": "C",
            "p3d": {
              "x": 3.612,
              "y": -0.3527,
              "z": -2.3321
            }
          },
          {
            "elSymbol": "C",
            "p3d": {
              "x": 3.6062,
              "y": 1.9513,
              "z": -1.6526
            }
          },
          {
            "elSymbol": "H",
            "p3d": {
              "x": 1.833,
              "y": 2.6461,
              "z": -0.6488
            }
          },
          {
            "elSymbol": "H",
            "p3d": {
              "x": 1.8361,
              "y": -1.4773,
              "z": -1.887
            }
          },
          {
            "elSymbol": "H",
            "p3d": {
              "x": 4.115,
              "y": -1.2043,
              "z": -2.8152
            }
          },
          {
            "elSymbol": "H",
            "p3d": {
              "x": 4.1097,
              "y": 2.9214,
              "z": -1.5842
            }
          },
          {
            "elSymbol": "H",
            "p3d": {
              "x": 5.2498,
              "y": 0.9926,
              "z": -2.665
            }
          }
        ],
        "bonds": [
          {
            "atomIds": [
              0,
              3
            ],
            "bo": "SINGLE"
          },
          {
            "atomIds": [
              3,
              4
            ],
            "bo": "DOUBLE"
          },
          {
            "atomIds": [
              1,
              4
            ],
            "bo": "SINGLE"
          },
          {
            "atomIds": [
              1,
              5
            ],
            "bo": "DOUBLE"
          },
          {
            "atomIds": [
              2,
              5
            ],
            "bo": "SINGLE"
          },
          {
            "atomIds": [
              0,
              2
            ],
            "bo": "DOUBLE"
          },
          {
            "atomIds": [
              4,
              8
            ],
            "bo": "SINGLE"
          },
          {
            "atomIds": [
              5,
              9
            ],
            "bo": "SINGLE"
          },
          {
            "atomIds": [
              1,
              10
            ],
            "bo": "SINGLE"
          },
          {
            "atomIds": [
              2,
              6
            ],
            "bo": "SINGLE"
          },
          {
            "atomIds": [
              3,
              7
            ],
            "bo": "SINGLE"
          }
        ]
      },
      "vertexId": 51452,
      "buildingBlockId": 35,
      "buildingBlockType": "FRAGMENT",
      "isRCV": false,
      "properties": {
        "ATTACHMENT_POINTS": "1#SubArS:1:SINGLE:0.2973%0.3873%-0.6389 "
      },
      "uniquefyingPropertyKeys": [],
      "allowedMutationTypes": [
        "DELETE",
        "EXTEND",
        "CHANGEBRANCH",
        "CHANGELINK",
        "ADDLINK",
        "DELETELINK",
        "DELETECHAIN"
      ],
      "vertexType": "MolecularFragment"
    },
    {
      "lstAPs": [
        {
          "id": 74032,
          "atomPositionNumber": 0,
          "atomPositionNumberInMol": 41,
          "apClass": {
            "rule": "SubRS",
            "subClass": 1,
            "bndTyp": "SINGLE"
          },
          "dirVec": {
            "x": 0.2865,
            "y": 0.3959,
            "z": -0.6387
          }
        }
      ],
      "lstSymAPs": [],
      "mol": {
        "atoms": [
          {
            "elSymbol": "C",
            "p3d": {
              "x": 0.3969,
              "y": -0.0496,
              "z": 0.8235
            }
          },
          {
            "elSymbol": "H",
            "p3d": {
              "x": -0.6146,
              "y": -0.163,
              "z": 1.2402
            }
          },
          {
            "elSymbol": "H",
            "p3d": {
              "x": 0.9335,
              "y": -0.9979,
              "z": 0.8998
            }
          },
          {
            "elSymbol": "H",
            "p3d": {
              "x": 0.9252,
              "y": 0.7237,
              "z": 1.3995
            }
          }
        ],
        "bonds": [
          {
            "atomIds": [
              0,
              1
            ],
            "bo": "SINGLE"
          },
          {
            "atomIds": [
              0,
              2
            ],
            "bo": "SINGLE"
          },
          {
            "atomIds": [
              0,
              3
            ],
            "bo": "SINGLE"
          }
        ]
      },
      "vertexId": 51464,
      "buildingBlockId": 30,
      "buildingBlockType": "FRAGMENT",
      "isRCV": false,
      "properties": {
        "ATTACHMENT_POINTS": "1#SubRS:1:SINGLE:0.2865%0.3959%-0.6387 "
      },
      "uniquefyingPropertyKeys": [],
      "allowedMutationTypes": [
        "DELETE",
        "EXTEND",
        "CHANGEBRANCH",
        "CHANGELINK",
        "ADDLINK",
        "DELETELINK",
        "DELETECHAIN"
      ],
      "vertexType": "MolecularFragment"
    },
    {
      "lstAPs": [
        {
          "id": 74033,
          "atomPositionNumber": 0,
          "atomPositionNumberInMol": 45,
          "apClass": {
            "rule": "SubArS",
            "subClass": 1,
            "bndTyp": "SINGLE"
          },
          "dirVec": {
            "x": 0.2973,
            "y": 0.3873,
            "z": -0.6389
          }
        }
      ],
      "lstSymAPs": [],
      "mol": {
        "atoms": [
          {
            "elSymbol": "C",
            "p3d": {
              "x": 1.6995,
              "y": 0.5593,
              "z": -1.2083
            }
          },
          {
            "elSymbol": "C",
            "p3d": {
              "x": 4.2563,
              "y": 0.8754,
              "z": -2.2592
            }
          },
          {
            "elSymbol": "C",
            "p3d": {
              "x": 2.3334,
              "y": 1.79,
              "z": -1.1338
            }
          },
          {
            "elSymbol": "C",
            "p3d": {
              "x": 2.3422,
              "y": -0.5107,
              "z": -1.8125
            }
          },
          {
            "elSymbol": "C",
            "p3d": {
              "x": 3.612,
              "y": -0.3527,
              "z": -2.3321
            }
          },
          {
            "elSymbol": "C",
            "p3d": {
              "x": 3.6062,
              "y": 1.9513,
              "z": -1.6526
            }
          },
          {
            "elSymbol": "H",
            "p3d": {
              "x": 1.833,
              "y": 2.6461,
              "z": -0.6488
            }
          },
          {
            "elSymbol": "H",
            "p3d": {
              "x": 1.8361,
              "y": -1.4773,
              "z": -1.887
            }
          },
          {
            "elSymbol": "H",
            "p3d": {
              "x": 4.115,
              "y": -1.2043,
              "z": -2.8152
            }
          },
          {
            "elSymbol": "H",
            "p3d": {
              "x": 4.1097,
              "y": 2.9214,
              "z": -1.5842
            }
          },
          {
            "elSymbol": "H",
            "p3d": {
              "x": 5.2498,
              "y": 0.9926,
              "z": -2.665
            }
          }
        ],
        "bonds": [
          {
            "atomIds": [
              0,
              3
            ],
            "bo": "SINGLE"
          },
          {
            "atomIds": [
              3,
              4
            ],
            "bo": "DOUBLE"
          },
          {
            "atomIds": [
              1,
              4
            ],
            "bo": "SINGLE"
          },
          {
            "atomIds": [
              1,
              5
            ],
            "bo": "DOUBLE"
          },
          {
            "atomIds": [
              2,
              5
            ],
            "bo": "SINGLE"
          },
          {
            "atomIds": [
              0,
              2
            ],
            "bo": "DOUBLE"
          },
          {
            "atomIds": [
              4,
              8
            ],
            "bo": "SINGLE"
          },
          {
            "atomIds": [
              5,
              9
            ],
            "bo": "SINGLE"
          },
          {
            "atomIds": [
              1,
              10
            ],
            "bo": "SINGLE"
          },
          {
            "atomIds": [
              2,
              6
            ],
            "bo": "SINGLE"
          },
          {
            "atomIds": [
              3,
              7
            ],
            "bo": "SINGLE"
          }
        ]
      },
      "vertexId": 55650,
      "buildingBlockId": 35,
      "buildingBlockType": "FRAGMENT",
      "isRCV": false,
      "properties": {
        "ATTACHMENT_POINTS": "1#SubArS:1:SINGLE:0.2973%0.3873%-0.6389 "
      },
      "uniquefyingPropertyKeys": [],
      "allowedMutationTypes": [
        "DELETE",
        "EXTEND",
        "CHANGEBRANCH",
        "CHANGELINK",
        "ADDLINK",
        "DELETELINK",
        "DELETECHAIN"
      ],
      "vertexType": "MolecularFragment"
    }
  ],
  "gEdges": [
    {
      "srcAPID": 73970,
      "trgAPID": 73973,
      "bondType": "SINGLE"
    },
    {
      "srcAPID": 73972,
      "trgAPID": 73975,
      "bondType": "SINGLE"
    },
    {
      "srcAPID": 73971,
      "trgAPID": 73980,
      "bondType": "SINGLE"
    },
    {
      "srcAPID": 73976,
      "trgAPID": 74029,
      "bondType": "SINGLE"
    },
    {
      "srcAPID": 73978,
      "trgAPID": 74030,
      "bondType": "SINGLE"
    },
    {
      "srcAPID": 73974,
      "trgAPID": 74031,
      "bondType": "SINGLE"
    },
    {
      "srcAPID": 73977,
      "trgAPID": 74032,
      "bondType": "SINGLE"
    },
    {
      "srcAPID": 73979,
      "trgAPID": 74033,
      "bondType": "SINGLE"
    }
  ],
  "gRings": [],
  "symVertices": [
    {
      "symIds": [
        51460,
        55650
      ]
    },
    {
      "symIds": [
        55651,
        51464
      ]
    }
  ]
}

> <SMILES>
[Pt](C#O)(OC([H])([H])[H])([P]1(C(=C(C(=C1C=2C(=C(C(=C(C2[H])[H])[H])[H])[H])C([H])([H])[H])C([H])([H])[H])C=3C(=C(C(=C(C3[H])[H])[H])[H])[H])C=4C(=C(C(=C(C4[H])[H])[H])[H])[H])SC([H])([H])[H]

$$$$
