M00018590
  CDK     04222215193D

 50 51  0  0  0  0  0  0  0  0999 V2000
   -2.5420    0.4638   -0.0752 Pt  0  0  0  0  0  0  0  0  0  0  0  0
   -4.4964    0.3275   -0.0678 C   0  0  0  0  0  0  0  0  0  0  0  0
   -5.6347    0.2531   -0.0571 O   0  0  0  0  0  0  0  0  0  0  0  0
   -2.9324    2.6261   -0.7855 S   0  0  0  0  0  0  0  0  0  0  0  0
   -2.9297    2.2535   -2.5596 C   0  0  0  0  0  0  0  0  0  0  0  0
   -3.8237    2.6844   -3.0272 H   0  0  0  0  0  0  0  0  0  0  0  0
   -2.9337    1.1701   -2.7380 H   0  0  0  0  0  0  0  0  0  0  0  0
   -2.0475    2.6848   -3.0436 H   0  0  0  0  0  0  0  0  0  0  0  0
   -0.2573    0.6235   -0.0442 P   0  0  0  0  0  0  0  0  0  0  0  0
    0.2963    0.4983    1.7683 C   0  0  0  0  0  0  0  0  0  0  0  0
   -0.5510    0.9076    4.1036 C   0  0  0  0  0  0  0  0  0  0  0  0
    1.0813   -0.9767    3.6452 C   0  0  0  0  0  0  0  0  0  0  0  0
   -0.0882   -0.4965    4.5157 C   0  0  0  0  0  0  0  0  0  0  0  0
    0.7178   -0.9241    2.1512 C   0  0  0  0  0  0  0  0  0  0  0  0
   -0.9079    0.9590    2.6076 C   0  0  0  0  0  0  0  0  0  0  0  0
    0.2397    1.6476    4.3292 H   0  0  0  0  0  0  0  0  0  0  0  0
    1.9758   -0.3562    3.8408 H   0  0  0  0  0  0  0  0  0  0  0  0
   -0.9344   -1.2075    4.4262 H   0  0  0  0  0  0  0  0  0  0  0  0
   -0.1055   -1.6510    1.9627 H   0  0  0  0  0  0  0  0  0  0  0  0
   -1.7968    0.3021    2.4323 H   0  0  0  0  0  0  0  0  0  0  0  0
    1.1542    1.1949    1.9354 H   0  0  0  0  0  0  0  0  0  0  0  0
   -1.4304    1.2054    4.7057 H   0  0  0  0  0  0  0  0  0  0  0  0
    1.3567   -2.0114    3.9241 H   0  0  0  0  0  0  0  0  0  0  0  0
    0.2052   -0.5015    5.5815 H   0  0  0  0  0  0  0  0  0  0  0  0
    1.5887   -1.2657    1.5509 H   0  0  0  0  0  0  0  0  0  0  0  0
   -1.2217    1.9917    2.3466 H   0  0  0  0  0  0  0  0  0  0  0  0
    0.4217   -0.8331   -1.0500 C   0  0  0  0  0  0  0  0  0  0  0  0
    0.3372   -1.8777   -3.3383 C   0  0  0  0  0  0  0  0  0  0  0  0
    2.4099   -2.1152   -1.9037 C   0  0  0  0  0  0  0  0  0  0  0  0
    1.8669   -1.9986   -3.3345 C   0  0  0  0  0  0  0  0  0  0  0  0
    1.9484   -0.9357   -1.0315 C   0  0  0  0  0  0  0  0  0  0  0  0
   -0.1335   -0.6950   -2.4744 C   0  0  0  0  0  0  0  0  0  0  0  0
   -0.1154   -2.8171   -2.9629 H   0  0  0  0  0  0  0  0  0  0  0  0
    2.0706   -3.0689   -1.4534 H   0  0  0  0  0  0  0  0  0  0  0  0
    2.3148   -1.1205   -3.8373 H   0  0  0  0  0  0  0  0  0  0  0  0
    2.4218   -0.0010   -1.4114 H   0  0  0  0  0  0  0  0  0  0  0  0
    0.1999    0.2497   -2.9517 H   0  0  0  0  0  0  0  0  0  0  0  0
   -0.0104   -1.7705   -0.5920 H   0  0  0  0  0  0  0  0  0  0  0  0
   -0.0313   -1.7557   -4.3739 H   0  0  0  0  0  0  0  0  0  0  0  0
    3.5147   -2.1606   -1.9199 H   0  0  0  0  0  0  0  0  0  0  0  0
    2.1758   -2.8806   -3.9268 H   0  0  0  0  0  0  0  0  0  0  0  0
    2.3216   -1.0840    0.0072 H   0  0  0  0  0  0  0  0  0  0  0  0
   -1.2470   -0.6758   -2.4660 H   0  0  0  0  0  0  0  0  0  0  0  0
    0.3178    2.1284   -0.6737 N   0  0  0  0  0  0  0  0  0  0  0  0
   -0.3333    2.8728   -0.9590 H   0  0  0  0  0  0  0  0  0  0  0  0
    1.7550    2.4221   -0.8148 C   0  0  0  0  0  0  0  0  0  0  0  0
    2.2379    2.6263    0.1588 H   0  0  0  0  0  0  0  0  0  0  0  0
    1.8870    3.3244   -1.4388 H   0  0  0  0  0  0  0  0  0  0  0  0
    2.3097    1.5984   -1.3157 H   0  0  0  0  0  0  0  0  0  0  0  0
   -2.6222   -1.8350    0.6348 Cl  0  0  0  0  0  0  0  0  0  0  0  0
  2  3  3  0  0  0  0
  1  2  1  0  0  0  0
  5  6  1  0  0  0  0
  5  7  1  0  0  0  0
  5  8  1  0  0  0  0
  4  5  1  0  0  0  0
  1  4  1  0  0  0  0
  1  9  1  0  0  0  0
 10 21  1  0  0  0  0
 10 14  1  0  0  0  0
 10 15  1  0  0  0  0
 11 16  1  0  0  0  0
 11 22  1  0  0  0  0
 11 13  1  0  0  0  0
 11 15  1  0  0  0  0
 12 17  1  0  0  0  0
 12 23  1  0  0  0  0
 12 14  1  0  0  0  0
 12 13  1  0  0  0  0
 13 18  1  0  0  0  0
 13 24  1  0  0  0  0
 14 19  1  0  0  0  0
 14 25  1  0  0  0  0
 15 20  1  0  0  0  0
 15 26  1  0  0  0  0
  9 10  1  0  0  0  0
 27 38  1  0  0  0  0
 27 31  1  0  0  0  0
 27 32  1  0  0  0  0
 28 33  1  0  0  0  0
 28 39  1  0  0  0  0
 28 30  1  0  0  0  0
 28 32  1  0  0  0  0
 29 34  1  0  0  0  0
 29 40  1  0  0  0  0
 29 31  1  0  0  0  0
 29 30  1  0  0  0  0
 30 35  1  0  0  0  0
 30 41  1  0  0  0  0
 31 36  1  0  0  0  0
 31 42  1  0  0  0  0
 32 37  1  0  0  0  0
 32 43  1  0  0  0  0
  9 27  1  0  0  0  0
 45 44  1  0  0  0  0
  9 44  1  0  0  0  0
 47 46  1  0  0  0  0
 48 46  1  0  0  0  0
 49 46  1  0  0  0  0
 44 46  1  0  0  0  0
  1 50  1  0  0  0  0
M  END
> <PM6_ENERGY>
-423.380

> <UID>
IJOILDNWFONCGD-FUBCUOBTNA-L

> <FITNESS>
1.14078

> <GCODE>
19951

> <GraphENC>
19951 72_1_0,79_64_1,101_4_1,88_67_1,19718_35_1,20629_35_1,19712_5_1,431953_2_2, 72_0_79_0_SINGLE_Xlig:0_Xlig:1,72_2_101_3_SINGLE_scaff:0_MMonoAminoPhosphine:1,72_1_88_0_SINGLE_Xlig:0_Xlig:1,101_1_19718_0_SINGLE_LMonoAminoPhosphineSubR:0_SubRM:1,101_2_20629_0_SINGLE_LMonoAminoPhosphineSubR:0_SubRM:1,101_0_19712_0_SINGLE_LMonoAminoPhosphineN:0_LAminoPhosphineNH:1,19712_1_431953_0_SINGLE_AminoPhosphineSubNL:0_me:1, SymmetricSet [symIds=[19718, 20629]] 

> <GraphJson>
{
  "graphId": 19951,
  "gVertices": [
    {
      "lstAPs": [
        {
          "id": 539466,
          "atomPositionNumber": 0,
          "atomPositionNumberInMol": 0,
          "apClass": {
            "rule": "Xlig",
            "subClass": 0,
            "bndTyp": "SINGLE"
          },
          "dirVec": {
            "x": -2.3339,
            "y": -0.0087,
            "z": 0.8172
          }
        },
        {
          "id": 539467,
          "atomPositionNumber": 0,
          "atomPositionNumberInMol": 0,
          "apClass": {
            "rule": "Xlig",
            "subClass": 0,
            "bndTyp": "SINGLE"
          },
          "dirVec": {
            "x": 2.336,
            "y": -5.0E-4,
            "z": 0.829
          }
        },
        {
          "id": 539468,
          "atomPositionNumber": 0,
          "atomPositionNumberInMol": 0,
          "apClass": {
            "rule": "scaff",
            "subClass": 0,
            "bndTyp": "SINGLE"
          },
          "dirVec": {
            "x": -0.0095,
            "y": 0.0046,
            "z": -1.7113
          }
        }
      ],
      "lstSymAPs": [
        {
          "symIds": [
            0,
            1
          ]
        }
      ],
      "mol": {
        "atoms": [
          {
            "elSymbol": "Pt",
            "p3d": {
              "x": -0.0098,
              "y": 0.0049,
              "z": 0.6289
            }
          },
          {
            "elSymbol": "C",
            "p3d": {
              "x": -6.0E-4,
              "y": 0.0016,
              "z": 2.5609
            }
          },
          {
            "elSymbol": "O",
            "p3d": {
              "x": 0.0025,
              "y": -0.0041,
              "z": 3.6974
            }
          },
          {
            "elSymbol": "Du",
            "p3d": {
              "x": -0.007,
              "y": 1.0013,
              "z": 0.6372
            }
          },
          {
            "elSymbol": "Du",
            "p3d": {
              "x": -0.0014,
              "y": 0.9902,
              "z": 2.5698
            }
          }
        ],
        "bonds": [
          {
            "atomIds": [
              1,
              2
            ],
            "bo": "TRIPLE"
          },
          {
            "atomIds": [
              0,
              1
            ],
            "bo": "SINGLE"
          },
          {
            "atomIds": [
              3,
              0
            ],
            "bo": "SINGLE"
          },
          {
            "atomIds": [
              4,
              1
            ],
            "bo": "SINGLE"
          }
        ]
      },
      "vertexId": 72,
      "buildingBlockId": 0,
      "buildingBlockType": "SCAFFOLD",
      "isRCV": false,
      "properties": {
        "ATTACHMENT_POINTS": "1#Xlig:0:SINGLE:-2.3339%-0.0087%0.8172,Xlig:0:SINGLE:2.3360%-0.0005%0.8290,scaff:0:SINGLE:-0.0095%0.0046%-1.7113 "
      },
      "uniquefyingPropertyKeys": [],
      "allowedMutationTypes": [
        "DELETE",
        "EXTEND",
        "CHANGEBRANCH",
        "CHANGELINK",
        "ADDLINK",
        "DELETELINK",
        "DELETECHAIN"
      ],
      "vertexType": "MolecularFragment"
    },
    {
      "lstAPs": [
        {
          "id": 539469,
          "atomPositionNumber": 0,
          "atomPositionNumberInMol": 5,
          "apClass": {
            "rule": "Xlig",
            "subClass": 1,
            "bndTyp": "SINGLE"
          },
          "dirVec": {
            "x": -0.102,
            "y": 0.0185,
            "z": -1.0265
          }
        }
      ],
      "lstSymAPs": [],
      "mol": {
        "atoms": [
          {
            "elSymbol": "S",
            "p3d": {
              "x": -0.3267,
              "y": 2.3403,
              "z": -1.0022
            }
          },
          {
            "elSymbol": "C",
            "p3d": {
              "x": -0.626,
              "y": 2.4866,
              "z": 0.7805
            }
          },
          {
            "elSymbol": "H",
            "p3d": {
              "x": 0.1766,
              "y": 3.089,
              "z": 1.2414
            }
          },
          {
            "elSymbol": "H",
            "p3d": {
              "x": -0.651,
              "y": 1.5065,
              "z": 1.2643
            }
          },
          {
            "elSymbol": "H",
            "p3d": {
              "x": -1.5658,
              "y": 2.981,
              "z": 0.9515
            }
          }
        ],
        "bonds": [
          {
            "atomIds": [
              1,
              2
            ],
            "bo": "SINGLE"
          },
          {
            "atomIds": [
              1,
              3
            ],
            "bo": "SINGLE"
          },
          {
            "atomIds": [
              1,
              4
            ],
            "bo": "SINGLE"
          },
          {
            "atomIds": [
              0,
              1
            ],
            "bo": "SINGLE"
          }
        ]
      },
      "vertexId": 79,
      "buildingBlockId": 63,
      "buildingBlockType": "FRAGMENT",
      "isRCV": false,
      "properties": {
        "ATTACHMENT_POINTS": "1#Xlig:1:SINGLE:-0.1020%0.0185%-1.0265 "
      },
      "uniquefyingPropertyKeys": [],
      "allowedMutationTypes": [
        "DELETE",
        "EXTEND",
        "CHANGEBRANCH",
        "CHANGELINK",
        "ADDLINK",
        "DELETELINK",
        "DELETECHAIN"
      ],
      "vertexType": "MolecularFragment"
    },
    {
      "lstAPs": [
        {
          "id": 539470,
          "atomPositionNumber": 0,
          "atomPositionNumberInMol": 10,
          "apClass": {
            "rule": "LMonoAminoPhosphineN",
            "subClass": 0,
            "bndTyp": "SINGLE"
          },
          "dirVec": {
            "x": 3.1471,
            "y": 10.0719,
            "z": 6.8843
          }
        },
        {
          "id": 539471,
          "atomPositionNumber": 0,
          "atomPositionNumberInMol": 10,
          "apClass": {
            "rule": "LMonoAminoPhosphineSubR",
            "subClass": 0,
            "bndTyp": "SINGLE"
          },
          "dirVec": {
            "x": 0.3842,
            "y": 9.4902,
            "z": 6.7015
          }
        },
        {
          "id": 539472,
          "atomPositionNumber": 0,
          "atomPositionNumberInMol": 10,
          "apClass": {
            "rule": "LMonoAminoPhosphineSubR",
            "subClass": 0,
            "bndTyp": "SINGLE"
          },
          "dirVec": {
            "x": 2.2197,
            "y": 7.8057,
            "z": 8.2724
          }
        },
        {
          "id": 539473,
          "atomPositionNumber": 0,
          "atomPositionNumberInMol": 10,
          "apClass": {
            "rule": "MMonoAminoPhosphine",
            "subClass": 1,
            "bndTyp": "SINGLE"
          },
          "dirVec": {
            "x": 2.6023,
            "y": 7.6121,
            "z": 4.8117
          }
        }
      ],
      "lstSymAPs": [
        {
          "symIds": [
            1,
            2
          ]
        }
      ],
      "mol": {
        "atoms": [
          {
            "elSymbol": "P",
            "p3d": {
              "x": 2.1045,
              "y": 8.7901,
              "z": 6.7495
            }
          }
        ],
        "bonds": []
      },
      "vertexId": 101,
      "buildingBlockId": 3,
      "buildingBlockType": "FRAGMENT",
      "isRCV": false,
      "properties": {
        "ATTACHMENT_POINTS": "1#LMonoAminoPhosphineN:0:SINGLE:3.1471%10.0719%6.8843,LMonoAminoPhosphineSubR:0:SINGLE:0.3842%9.4902%6.7015,LMonoAminoPhosphineSubR:0:SINGLE:2.2197%7.8057%8.2724,MMonoAminoPhosphine:1:SINGLE:2.6023%7.6121%4.8117 "
      },
      "uniquefyingPropertyKeys": [],
      "allowedMutationTypes": [
        "DELETE",
        "EXTEND",
        "CHANGEBRANCH",
        "CHANGELINK",
        "ADDLINK",
        "DELETELINK",
        "DELETECHAIN"
      ],
      "vertexType": "MolecularFragment"
    },
    {
      "lstAPs": [
        {
          "id": 539474,
          "atomPositionNumber": 0,
          "atomPositionNumberInMol": 51,
          "apClass": {
            "rule": "Xlig",
            "subClass": 1,
            "bndTyp": "SINGLE"
          },
          "dirVec": {
            "x": -0.0053,
            "y": -0.0027,
            "z": 0.63
          }
        }
      ],
      "lstSymAPs": [],
      "mol": {
        "atoms": [
          {
            "elSymbol": "Cl",
            "p3d": {
              "x": 2.3243,
              "y": -0.0063,
              "z": 0.8189
            }
          }
        ],
        "bonds": []
      },
      "vertexId": 88,
      "buildingBlockId": 66,
      "buildingBlockType": "FRAGMENT",
      "isRCV": false,
      "properties": {
        "ATTACHMENT_POINTS": "1#Xlig:1:SINGLE:-0.0053%-0.0027%0.6300 "
      },
      "uniquefyingPropertyKeys": [],
      "allowedMutationTypes": [
        "DELETE",
        "EXTEND",
        "CHANGEBRANCH",
        "CHANGELINK",
        "ADDLINK",
        "DELETELINK",
        "DELETECHAIN"
      ],
      "vertexType": "MolecularFragment"
    },
    {
      "lstAPs": [
        {
          "id": 539475,
          "atomPositionNumber": 0,
          "atomPositionNumberInMol": 11,
          "apClass": {
            "rule": "SubRM",
            "subClass": 1,
            "bndTyp": "SINGLE"
          },
          "dirVec": {
            "x": 0.2917,
            "y": 0.3929,
            "z": -0.6365
          }
        }
      ],
      "lstSymAPs": [],
      "mol": {
        "atoms": [
          {
            "elSymbol": "C",
            "p3d": {
              "x": 1.7002,
              "y": 0.56,
              "z": -1.2045
            }
          },
          {
            "elSymbol": "C",
            "p3d": {
              "x": 3.564,
              "y": -0.7339,
              "z": -2.2652
            }
          },
          {
            "elSymbol": "C",
            "p3d": {
              "x": 2.9237,
              "y": 1.5034,
              "z": -3.1926
            }
          },
          {
            "elSymbol": "C",
            "p3d": {
              "x": 3.4145,
              "y": 0.0994,
              "z": -3.5498
            }
          },
          {
            "elSymbol": "C",
            "p3d": {
              "x": 1.5576,
              "y": 1.3879,
              "z": -2.5024
            }
          },
          {
            "elSymbol": "C",
            "p3d": {
              "x": 2.203,
              "y": -0.843,
              "z": -1.5702
            }
          },
          {
            "elSymbol": "H",
            "p3d": {
              "x": 4.3384,
              "y": -0.3241,
              "z": -1.6106
            }
          },
          {
            "elSymbol": "H",
            "p3d": {
              "x": 3.6361,
              "y": 2.0524,
              "z": -2.5991
            }
          },
          {
            "elSymbol": "H",
            "p3d": {
              "x": 2.7828,
              "y": -0.3911,
              "z": -4.2916
            }
          },
          {
            "elSymbol": "H",
            "p3d": {
              "x": 0.7737,
              "y": 0.9833,
              "z": -3.15
            }
          },
          {
            "elSymbol": "H",
            "p3d": {
              "x": 1.4815,
              "y": -1.3988,
              "z": -2.1783
            }
          },
          {
            "elSymbol": "H",
            "p3d": {
              "x": 2.3445,
              "y": 1.0609,
              "z": -0.4835
            }
          },
          {
            "elSymbol": "H",
            "p3d": {
              "x": 3.8429,
              "y": -1.7623,
              "z": -2.577
            }
          },
          {
            "elSymbol": "H",
            "p3d": {
              "x": 2.7428,
              "y": 2.0124,
              "z": -4.146
            }
          },
          {
            "elSymbol": "H",
            "p3d": {
              "x": 4.4291,
              "y": 0.2183,
              "z": -3.9628
            }
          },
          {
            "elSymbol": "H",
            "p3d": {
              "x": 1.2819,
              "y": 2.4034,
              "z": -2.1821
            }
          },
          {
            "elSymbol": "H",
            "p3d": {
              "x": 2.3734,
              "y": -1.3662,
              "z": -0.6149
            }
          }
        ],
        "bonds": [
          {
            "atomIds": [
              0,
              11
            ],
            "bo": "SINGLE"
          },
          {
            "atomIds": [
              0,
              4
            ],
            "bo": "SINGLE"
          },
          {
            "atomIds": [
              0,
              5
            ],
            "bo": "SINGLE"
          },
          {
            "atomIds": [
              1,
              6
            ],
            "bo": "SINGLE"
          },
          {
            "atomIds": [
              1,
              12
            ],
            "bo": "SINGLE"
          },
          {
            "atomIds": [
              1,
              3
            ],
            "bo": "SINGLE"
          },
          {
            "atomIds": [
              1,
              5
            ],
            "bo": "SINGLE"
          },
          {
            "atomIds": [
              2,
              7
            ],
            "bo": "SINGLE"
          },
          {
            "atomIds": [
              2,
              13
            ],
            "bo": "SINGLE"
          },
          {
            "atomIds": [
              2,
              4
            ],
            "bo": "SINGLE"
          },
          {
            "atomIds": [
              2,
              3
            ],
            "bo": "SINGLE"
          },
          {
            "atomIds": [
              3,
              8
            ],
            "bo": "SINGLE"
          },
          {
            "atomIds": [
              3,
              14
            ],
            "bo": "SINGLE"
          },
          {
            "atomIds": [
              4,
              9
            ],
            "bo": "SINGLE"
          },
          {
            "atomIds": [
              4,
              15
            ],
            "bo": "SINGLE"
          },
          {
            "atomIds": [
              5,
              10
            ],
            "bo": "SINGLE"
          },
          {
            "atomIds": [
              5,
              16
            ],
            "bo": "SINGLE"
          }
        ]
      },
      "vertexId": 19718,
      "buildingBlockId": 34,
      "buildingBlockType": "FRAGMENT",
      "isRCV": false,
      "properties": {
        "ATTACHMENT_POINTS": "1#SubRM:1:SINGLE:0.2917%0.3929%-0.6365 "
      },
      "uniquefyingPropertyKeys": [],
      "allowedMutationTypes": [
        "DELETE",
        "EXTEND",
        "CHANGEBRANCH",
        "CHANGELINK",
        "ADDLINK",
        "DELETELINK",
        "DELETECHAIN"
      ],
      "vertexType": "MolecularFragment"
    },
    {
      "lstAPs": [
        {
          "id": 539476,
          "atomPositionNumber": 0,
          "atomPositionNumberInMol": 28,
          "apClass": {
            "rule": "SubRM",
            "subClass": 1,
            "bndTyp": "SINGLE"
          },
          "dirVec": {
            "x": 0.2917,
            "y": 0.3929,
            "z": -0.6365
          }
        }
      ],
      "lstSymAPs": [],
      "mol": {
        "atoms": [
          {
            "elSymbol": "C",
            "p3d": {
              "x": 1.7002,
              "y": 0.56,
              "z": -1.2045
            }
          },
          {
            "elSymbol": "C",
            "p3d": {
              "x": 3.564,
              "y": -0.7339,
              "z": -2.2652
            }
          },
          {
            "elSymbol": "C",
            "p3d": {
              "x": 2.9237,
              "y": 1.5034,
              "z": -3.1926
            }
          },
          {
            "elSymbol": "C",
            "p3d": {
              "x": 3.4145,
              "y": 0.0994,
              "z": -3.5498
            }
          },
          {
            "elSymbol": "C",
            "p3d": {
              "x": 1.5576,
              "y": 1.3879,
              "z": -2.5024
            }
          },
          {
            "elSymbol": "C",
            "p3d": {
              "x": 2.203,
              "y": -0.843,
              "z": -1.5702
            }
          },
          {
            "elSymbol": "H",
            "p3d": {
              "x": 4.3384,
              "y": -0.3241,
              "z": -1.6106
            }
          },
          {
            "elSymbol": "H",
            "p3d": {
              "x": 3.6361,
              "y": 2.0524,
              "z": -2.5991
            }
          },
          {
            "elSymbol": "H",
            "p3d": {
              "x": 2.7828,
              "y": -0.3911,
              "z": -4.2916
            }
          },
          {
            "elSymbol": "H",
            "p3d": {
              "x": 0.7737,
              "y": 0.9833,
              "z": -3.15
            }
          },
          {
            "elSymbol": "H",
            "p3d": {
              "x": 1.4815,
              "y": -1.3988,
              "z": -2.1783
            }
          },
          {
            "elSymbol": "H",
            "p3d": {
              "x": 2.3445,
              "y": 1.0609,
              "z": -0.4835
            }
          },
          {
            "elSymbol": "H",
            "p3d": {
              "x": 3.8429,
              "y": -1.7623,
              "z": -2.577
            }
          },
          {
            "elSymbol": "H",
            "p3d": {
              "x": 2.7428,
              "y": 2.0124,
              "z": -4.146
            }
          },
          {
            "elSymbol": "H",
            "p3d": {
              "x": 4.4291,
              "y": 0.2183,
              "z": -3.9628
            }
          },
          {
            "elSymbol": "H",
            "p3d": {
              "x": 1.2819,
              "y": 2.4034,
              "z": -2.1821
            }
          },
          {
            "elSymbol": "H",
            "p3d": {
              "x": 2.3734,
              "y": -1.3662,
              "z": -0.6149
            }
          }
        ],
        "bonds": [
          {
            "atomIds": [
              0,
              11
            ],
            "bo": "SINGLE"
          },
          {
            "atomIds": [
              0,
              4
            ],
            "bo": "SINGLE"
          },
          {
            "atomIds": [
              0,
              5
            ],
            "bo": "SINGLE"
          },
          {
            "atomIds": [
              1,
              6
            ],
            "bo": "SINGLE"
          },
          {
            "atomIds": [
              1,
              12
            ],
            "bo": "SINGLE"
          },
          {
            "atomIds": [
              1,
              3
            ],
            "bo": "SINGLE"
          },
          {
            "atomIds": [
              1,
              5
            ],
            "bo": "SINGLE"
          },
          {
            "atomIds": [
              2,
              7
            ],
            "bo": "SINGLE"
          },
          {
            "atomIds": [
              2,
              13
            ],
            "bo": "SINGLE"
          },
          {
            "atomIds": [
              2,
              4
            ],
            "bo": "SINGLE"
          },
          {
            "atomIds": [
              2,
              3
            ],
            "bo": "SINGLE"
          },
          {
            "atomIds": [
              3,
              8
            ],
            "bo": "SINGLE"
          },
          {
            "atomIds": [
              3,
              14
            ],
            "bo": "SINGLE"
          },
          {
            "atomIds": [
              4,
              9
            ],
            "bo": "SINGLE"
          },
          {
            "atomIds": [
              4,
              15
            ],
            "bo": "SINGLE"
          },
          {
            "atomIds": [
              5,
              10
            ],
            "bo": "SINGLE"
          },
          {
            "atomIds": [
              5,
              16
            ],
            "bo": "SINGLE"
          }
        ]
      },
      "vertexId": 20629,
      "buildingBlockId": 34,
      "buildingBlockType": "FRAGMENT",
      "isRCV": false,
      "properties": {
        "ATTACHMENT_POINTS": "1#SubRM:1:SINGLE:0.2917%0.3929%-0.6365 "
      },
      "uniquefyingPropertyKeys": [],
      "allowedMutationTypes": [
        "DELETE",
        "EXTEND",
        "CHANGEBRANCH",
        "CHANGELINK",
        "ADDLINK",
        "DELETELINK",
        "DELETECHAIN"
      ],
      "vertexType": "MolecularFragment"
    },
    {
      "lstAPs": [
        {
          "id": 539477,
          "atomPositionNumber": 0,
          "atomPositionNumberInMol": 45,
          "apClass": {
            "rule": "LAminoPhosphineNH",
            "subClass": 1,
            "bndTyp": "SINGLE"
          },
          "dirVec": {
            "x": 6.5561,
            "y": 10.0497,
            "z": 0.7834
          }
        },
        {
          "id": 539478,
          "atomPositionNumber": 0,
          "atomPositionNumberInMol": 45,
          "apClass": {
            "rule": "AminoPhosphineSubNL",
            "subClass": 0,
            "bndTyp": "SINGLE"
          },
          "dirVec": {
            "x": 5.3575,
            "y": 10.9907,
            "z": -1.5461
          }
        }
      ],
      "lstSymAPs": [],
      "mol": {
        "atoms": [
          {
            "elSymbol": "N",
            "p3d": {
              "x": 5.9053,
              "y": 11.1997,
              "z": -0.1783
            }
          },
          {
            "elSymbol": "H",
            "p3d": {
              "x": 6.5049,
              "y": 12.0079,
              "z": -0.2127
            }
          }
        ],
        "bonds": [
          {
            "atomIds": [
              1,
              0
            ],
            "bo": "SINGLE"
          }
        ]
      },
      "vertexId": 19712,
      "buildingBlockId": 4,
      "buildingBlockType": "FRAGMENT",
      "isRCV": false,
      "properties": {
        "ATTACHMENT_POINTS": "1#LAminoPhosphineNH:1:SINGLE:6.5561%10.0497%0.7834,AminoPhosphineSubNL:0:SINGLE:5.3575%10.9907%-1.5461 "
      },
      "uniquefyingPropertyKeys": [],
      "allowedMutationTypes": [
        "DELETE",
        "EXTEND",
        "CHANGEBRANCH",
        "CHANGELINK",
        "ADDLINK",
        "DELETELINK",
        "DELETECHAIN"
      ],
      "vertexType": "MolecularFragment"
    },
    {
      "lstAPs": [
        {
          "id": 539523,
          "atomPositionNumber": 0,
          "atomPositionNumberInMol": 47,
          "apClass": {
            "rule": "me",
            "subClass": 1,
            "bndTyp": "SINGLE"
          },
          "dirVec": {
            "x": 6.4052,
            "y": 0.4666,
            "z": 7.6784
          }
        }
      ],
      "lstSymAPs": [],
      "mol": {
        "atoms": [
          {
            "elSymbol": "C",
            "p3d": {
              "x": 5.1845,
              "y": -0.3158,
              "z": 7.9034
            }
          },
          {
            "elSymbol": "H",
            "p3d": {
              "x": 4.4018,
              "y": 0.0156,
              "z": 7.2277
            }
          },
          {
            "elSymbol": "H",
            "p3d": {
              "x": 4.8466,
              "y": -0.2064,
              "z": 8.9326
            }
          },
          {
            "elSymbol": "H",
            "p3d": {
              "x": 5.4032,
              "y": -1.3837,
              "z": 7.7252
            }
          }
        ],
        "bonds": [
          {
            "atomIds": [
              1,
              0
            ],
            "bo": "SINGLE"
          },
          {
            "atomIds": [
              2,
              0
            ],
            "bo": "SINGLE"
          },
          {
            "atomIds": [
              3,
              0
            ],
            "bo": "SINGLE"
          }
        ]
      },
      "vertexId": 431953,
      "buildingBlockId": 1,
      "buildingBlockType": "CAP",
      "isRCV": false,
      "properties": {
        "ATTACHMENT_POINTS": "1#me:1:SINGLE:6.4052%0.4666%7.6784 "
      },
      "uniquefyingPropertyKeys": [],
      "allowedMutationTypes": [
        "DELETE",
        "EXTEND",
        "CHANGEBRANCH",
        "CHANGELINK",
        "ADDLINK",
        "DELETELINK",
        "DELETECHAIN"
      ],
      "vertexType": "MolecularFragment"
    }
  ],
  "gEdges": [
    {
      "srcAPID": 539466,
      "trgAPID": 539469,
      "bondType": "SINGLE"
    },
    {
      "srcAPID": 539468,
      "trgAPID": 539473,
      "bondType": "SINGLE"
    },
    {
      "srcAPID": 539467,
      "trgAPID": 539474,
      "bondType": "SINGLE"
    },
    {
      "srcAPID": 539471,
      "trgAPID": 539475,
      "bondType": "SINGLE"
    },
    {
      "srcAPID": 539472,
      "trgAPID": 539476,
      "bondType": "SINGLE"
    },
    {
      "srcAPID": 539470,
      "trgAPID": 539477,
      "bondType": "SINGLE"
    },
    {
      "srcAPID": 539478,
      "trgAPID": 539523,
      "bondType": "SINGLE"
    }
  ],
  "gRings": [],
  "symVertices": [
    {
      "symIds": [
        19718,
        20629
      ]
    }
  ]
}

> <SMILES>
[Pt](C#O)(SC([H])([H])[H])([P](C1([H])C(C([H])([H])C(C([H])([H])C1([H])[H])([H])[H])([H])[H])(C2([H])C(C([H])([H])C(C([H])([H])C2([H])[H])([H])[H])([H])[H])N([H])C([H])([H])[H])Cl

$$$$
