M00000711
  CDK     04222208533D

 55 60  0  0  0  0  0  0  0  0999 V2000
   -0.3799    3.0915    0.6775 Pt  0  0  0  0  0  0  0  0  0  0  0  0
   -0.2784    5.0347    0.8207 C   0  0  0  0  0  0  0  0  0  0  0  0
   -0.2057    6.1701    0.8980 O   0  0  0  0  0  0  0  0  0  0  0  0
    1.7700    3.1986    1.5015 S   0  0  0  0  0  0  0  0  0  0  0  0
    2.6188    3.1087   -0.0951 C   0  0  0  0  0  0  0  0  0  0  0  0
    3.4225    3.8541   -0.1281 H   0  0  0  0  0  0  0  0  0  0  0  0
    1.9254    3.3085   -0.9240 H   0  0  0  0  0  0  0  0  0  0  0  0
    3.0601    2.1155   -0.2481 H   0  0  0  0  0  0  0  0  0  0  0  0
   -0.4399    0.7958    0.5092 P   0  0  0  0  0  0  0  0  0  0  0  0
    2.1677    0.0789    1.4491 N   0  0  0  0  0  0  0  0  0  0  0  0
   -2.3054    0.6709   -1.6548 N   0  0  0  0  0  0  0  0  0  0  0  0
    1.1632   -0.0809    0.4899 C   0  0  0  0  0  0  0  0  0  0  0  0
    1.5256   -1.0357   -0.4560 C   0  0  0  0  0  0  0  0  0  0  0  0
    2.8282   -1.5124   -0.0731 C   0  0  0  0  0  0  0  0  0  0  0  0
    3.7200   -2.4677   -0.6098 C   0  0  0  0  0  0  0  0  0  0  0  0
    3.4472   -3.0105   -1.5120 H   0  0  0  0  0  0  0  0  0  0  0  0
    4.9218   -2.6884    0.0287 C   0  0  0  0  0  0  0  0  0  0  0  0
    5.6272   -3.4187   -0.3632 H   0  0  0  0  0  0  0  0  0  0  0  0
    5.2775   -1.9739    1.2111 C   0  0  0  0  0  0  0  0  0  0  0  0
    6.2416   -2.1892    1.6729 H   0  0  0  0  0  0  0  0  0  0  0  0
    4.4399   -1.0331    1.7690 C   0  0  0  0  0  0  0  0  0  0  0  0
    4.7051   -0.4839    2.6670 H   0  0  0  0  0  0  0  0  0  0  0  0
    3.2021   -0.8013    1.1203 C   0  0  0  0  0  0  0  0  0  0  0  0
    0.7508   -1.4938   -1.6399 C   0  0  0  0  0  0  0  0  0  0  0  0
    1.3944   -1.4071   -2.5506 H   0  0  0  0  0  0  0  0  0  0  0  0
    0.5372   -2.5861   -1.5405 H   0  0  0  0  0  0  0  0  0  0  0  0
   -1.1169    0.2104   -1.0809 C   0  0  0  0  0  0  0  0  0  0  0  0
   -0.5232   -0.7646   -1.8797 C   0  0  0  0  0  0  0  0  0  0  0  0
   -1.3858   -0.9386   -3.0164 C   0  0  0  0  0  0  0  0  0  0  0  0
   -1.3463   -1.7656   -4.1623 C   0  0  0  0  0  0  0  0  0  0  0  0
   -0.5160   -2.4545   -4.2990 H   0  0  0  0  0  0  0  0  0  0  0  0
   -2.3678   -1.6756   -5.0827 C   0  0  0  0  0  0  0  0  0  0  0  0
   -2.3627   -2.3000   -5.9741 H   0  0  0  0  0  0  0  0  0  0  0  0
   -3.4546   -0.7678   -4.9018 C   0  0  0  0  0  0  0  0  0  0  0  0
   -4.2332   -0.7384   -5.6646 H   0  0  0  0  0  0  0  0  0  0  0  0
   -3.5341    0.0570   -3.8023 C   0  0  0  0  0  0  0  0  0  0  0  0
   -4.3548    0.7540   -3.6590 H   0  0  0  0  0  0  0  0  0  0  0  0
   -2.4886   -0.0296   -2.8490 C   0  0  0  0  0  0  0  0  0  0  0  0
   -2.9215    1.3841   -1.2842 H   0  0  0  0  0  0  0  0  0  0  0  0
    2.1568    0.7197    2.2299 H   0  0  0  0  0  0  0  0  0  0  0  0
   -1.4328    0.0055    1.8547 C   0  0  0  0  0  0  0  0  0  0  0  0
   -2.8969   -1.3582    3.7920 C   0  0  0  0  0  0  0  0  0  0  0  0
   -1.9178    0.7143    2.9608 C   0  0  0  0  0  0  0  0  0  0  0  0
   -1.6710   -1.3675    1.7095 C   0  0  0  0  0  0  0  0  0  0  0  0
   -2.4036   -2.0519    2.6788 C   0  0  0  0  0  0  0  0  0  0  0  0
   -2.6573    0.0063    3.9322 C   0  0  0  0  0  0  0  0  0  0  0  0
   -1.2959   -1.9264    0.8457 H   0  0  0  0  0  0  0  0  0  0  0  0
   -2.5932   -3.1181    2.5719 H   0  0  0  0  0  0  0  0  0  0  0  0
   -3.0490    0.5358    4.7999 H   0  0  0  0  0  0  0  0  0  0  0  0
   -3.4719   -1.8906    4.5510 H   0  0  0  0  0  0  0  0  0  0  0  0
   -1.7060    2.1789    3.1630 C   0  0  0  0  0  0  0  0  0  0  0  0
   -2.2814    2.7782    2.4263 H   0  0  0  0  0  0  0  0  0  0  0  0
   -0.6441    2.4822    3.1087 H   0  0  0  0  0  0  0  0  0  0  0  0
   -2.0566    2.5191    4.1503 H   0  0  0  0  0  0  0  0  0  0  0  0
   -2.6109    3.5575   -0.1385 Cl  0  0  0  0  0  0  0  0  0  0  0  0
  2  3  3  0  0  0  0
  1  2  1  0  0  0  0
  5  6  1  0  0  0  0
  5  7  1  0  0  0  0
  5  8  1  0  0  0  0
  4  5  1  0  0  0  0
  1  4  1  0  0  0  0
 10 12  1  0  0  0  0
 11 27  1  0  0  0  0
 12  9  1  0  0  0  0
 13 12  2  0  0  0  0
 14 13  1  0  0  0  0
 14 23  2  0  0  0  0
 15 14  1  0  0  0  0
 16 15  1  0  0  0  0
 17 15  2  0  0  0  0
 18 17  1  0  0  0  0
 19 17  1  0  0  0  0
 20 19  1  0  0  0  0
 21 19  2  0  0  0  0
 21 23  1  0  0  0  0
 22 21  1  0  0  0  0
 23 10  1  0  0  0  0
 24 13  1  0  0  0  0
 25 24  1  0  0  0  0
 26 24  1  0  0  0  0
 27  9  1  0  0  0  0
 27 28  2  0  0  0  0
 28 24  1  0  0  0  0
 29 28  1  0  0  0  0
 29 38  2  0  0  0  0
 30 29  1  0  0  0  0
 31 30  1  0  0  0  0
 32 30  2  0  0  0  0
 33 32  1  0  0  0  0
 34 32  1  0  0  0  0
 35 34  1  0  0  0  0
 36 34  2  0  0  0  0
 36 38  1  0  0  0  0
 37 36  1  0  0  0  0
 38 11  1  0  0  0  0
 39 11  1  0  0  0  0
 40 10  1  0  0  0  0
  1  9  1  0  0  0  0
 41 44  1  0  0  0  0
 44 45  2  0  0  0  0
 42 45  1  0  0  0  0
 42 46  2  0  0  0  0
 43 46  1  0  0  0  0
 41 43  2  0  0  0  0
 45 48  1  0  0  0  0
 46 49  1  0  0  0  0
 42 50  1  0  0  0  0
 44 47  1  0  0  0  0
 51 52  1  0  0  0  0
 51 53  1  0  0  0  0
 51 54  1  0  0  0  0
 43 51  1  0  0  0  0
  9 41  1  0  0  0  0
  1 55  1  0  0  0  0
M  END
> <PM6_ENERGY>
175.005

> <UID>
PMXDNIYWMDYDTB-CNEMYBAENA-L

> <FITNESS>
1.14035

> <GCODE>
1284

> <GraphENC>
1284 72_1_0,79_64_1,106_44_1,88_67_1,21254_37_1, 72_0_79_0_SINGLE_Xlig:0_Xlig:1,72_2_106_1_SINGLE_scaff:0_MPhosphine:1,72_1_88_0_SINGLE_Xlig:0_Xlig:1,106_0_21254_0_SINGLE_LPhosphineSubM:0_SubArM:1, 

> <GraphJson>
{
  "graphId": 1284,
  "gVertices": [
    {
      "lstAPs": [
        {
          "id": 29435,
          "atomPositionNumber": 0,
          "atomPositionNumberInMol": 0,
          "apClass": {
            "rule": "Xlig",
            "subClass": 0,
            "bndTyp": "SINGLE"
          },
          "dirVec": {
            "x": -2.3339,
            "y": -0.0087,
            "z": 0.8172
          }
        },
        {
          "id": 29436,
          "atomPositionNumber": 0,
          "atomPositionNumberInMol": 0,
          "apClass": {
            "rule": "Xlig",
            "subClass": 0,
            "bndTyp": "SINGLE"
          },
          "dirVec": {
            "x": 2.336,
            "y": -5.0E-4,
            "z": 0.829
          }
        },
        {
          "id": 29437,
          "atomPositionNumber": 0,
          "atomPositionNumberInMol": 0,
          "apClass": {
            "rule": "scaff",
            "subClass": 0,
            "bndTyp": "SINGLE"
          },
          "dirVec": {
            "x": -0.0095,
            "y": 0.0046,
            "z": -1.7113
          }
        }
      ],
      "lstSymAPs": [
        {
          "symIds": [
            0,
            1
          ]
        }
      ],
      "mol": {
        "atoms": [
          {
            "elSymbol": "Pt",
            "p3d": {
              "x": -0.0098,
              "y": 0.0049,
              "z": 0.6289
            }
          },
          {
            "elSymbol": "C",
            "p3d": {
              "x": -6.0E-4,
              "y": 0.0016,
              "z": 2.5609
            }
          },
          {
            "elSymbol": "O",
            "p3d": {
              "x": 0.0025,
              "y": -0.0041,
              "z": 3.6974
            }
          },
          {
            "elSymbol": "Du",
            "p3d": {
              "x": -0.007,
              "y": 1.0013,
              "z": 0.6372
            }
          },
          {
            "elSymbol": "Du",
            "p3d": {
              "x": -0.0014,
              "y": 0.9902,
              "z": 2.5698
            }
          }
        ],
        "bonds": [
          {
            "atomIds": [
              1,
              2
            ],
            "bo": "TRIPLE"
          },
          {
            "atomIds": [
              0,
              1
            ],
            "bo": "SINGLE"
          },
          {
            "atomIds": [
              3,
              0
            ],
            "bo": "SINGLE"
          },
          {
            "atomIds": [
              4,
              1
            ],
            "bo": "SINGLE"
          }
        ]
      },
      "vertexId": 72,
      "buildingBlockId": 0,
      "buildingBlockType": "SCAFFOLD",
      "isRCV": false,
      "properties": {
        "ATTACHMENT_POINTS": "1#Xlig:0:SINGLE:-2.3339%-0.0087%0.8172,Xlig:0:SINGLE:2.3360%-0.0005%0.8290,scaff:0:SINGLE:-0.0095%0.0046%-1.7113 "
      },
      "uniquefyingPropertyKeys": [],
      "allowedMutationTypes": [
        "DELETE",
        "EXTEND",
        "CHANGEBRANCH",
        "CHANGELINK",
        "ADDLINK",
        "DELETELINK",
        "DELETECHAIN"
      ],
      "vertexType": "MolecularFragment"
    },
    {
      "lstAPs": [
        {
          "id": 29438,
          "atomPositionNumber": 0,
          "atomPositionNumberInMol": 5,
          "apClass": {
            "rule": "Xlig",
            "subClass": 1,
            "bndTyp": "SINGLE"
          },
          "dirVec": {
            "x": -0.102,
            "y": 0.0185,
            "z": -1.0265
          }
        }
      ],
      "lstSymAPs": [],
      "mol": {
        "atoms": [
          {
            "elSymbol": "S",
            "p3d": {
              "x": -0.3267,
              "y": 2.3403,
              "z": -1.0022
            }
          },
          {
            "elSymbol": "C",
            "p3d": {
              "x": -0.626,
              "y": 2.4866,
              "z": 0.7805
            }
          },
          {
            "elSymbol": "H",
            "p3d": {
              "x": 0.1766,
              "y": 3.089,
              "z": 1.2414
            }
          },
          {
            "elSymbol": "H",
            "p3d": {
              "x": -0.651,
              "y": 1.5065,
              "z": 1.2643
            }
          },
          {
            "elSymbol": "H",
            "p3d": {
              "x": -1.5658,
              "y": 2.981,
              "z": 0.9515
            }
          }
        ],
        "bonds": [
          {
            "atomIds": [
              1,
              2
            ],
            "bo": "SINGLE"
          },
          {
            "atomIds": [
              1,
              3
            ],
            "bo": "SINGLE"
          },
          {
            "atomIds": [
              1,
              4
            ],
            "bo": "SINGLE"
          },
          {
            "atomIds": [
              0,
              1
            ],
            "bo": "SINGLE"
          }
        ]
      },
      "vertexId": 79,
      "buildingBlockId": 63,
      "buildingBlockType": "FRAGMENT",
      "isRCV": false,
      "properties": {
        "ATTACHMENT_POINTS": "1#Xlig:1:SINGLE:-0.1020%0.0185%-1.0265 "
      },
      "uniquefyingPropertyKeys": [],
      "allowedMutationTypes": [
        "DELETE",
        "EXTEND",
        "CHANGEBRANCH",
        "CHANGELINK",
        "ADDLINK",
        "DELETELINK",
        "DELETECHAIN"
      ],
      "vertexType": "MolecularFragment"
    },
    {
      "lstAPs": [
        {
          "id": 29439,
          "atomPositionNumber": 0,
          "atomPositionNumberInMol": 10,
          "apClass": {
            "rule": "LPhosphineSubM",
            "subClass": 0,
            "bndTyp": "SINGLE"
          },
          "dirVec": {
            "x": 9.6921,
            "y": 11.1939,
            "z": 8.6295
          }
        },
        {
          "id": 29440,
          "atomPositionNumber": 0,
          "atomPositionNumberInMol": 10,
          "apClass": {
            "rule": "MPhosphine",
            "subClass": 1,
            "bndTyp": "SINGLE"
          },
          "dirVec": {
            "x": 6.9761,
            "y": 12.58,
            "z": 7.2794
          }
        }
      ],
      "lstSymAPs": [],
      "mol": {
        "atoms": [
          {
            "elSymbol": "P",
            "p3d": {
              "x": 7.9602,
              "y": 10.8392,
              "z": 8.2268
            }
          },
          {
            "elSymbol": "N",
            "p3d": {
              "x": 8.5483,
              "y": 9.0407,
              "z": 6.1703
            }
          },
          {
            "elSymbol": "N",
            "p3d": {
              "x": 6.8549,
              "y": 11.2353,
              "z": 10.7656
            }
          },
          {
            "elSymbol": "C",
            "p3d": {
              "x": 7.892,
              "y": 9.2815,
              "z": 7.3648
            }
          },
          {
            "elSymbol": "C",
            "p3d": {
              "x": 7.2175,
              "y": 8.1492,
              "z": 7.7741
            }
          },
          {
            "elSymbol": "C",
            "p3d": {
              "x": 7.4688,
              "y": 7.1556,
              "z": 6.7782
            }
          },
          {
            "elSymbol": "C",
            "p3d": {
              "x": 7.0398,
              "y": 5.8455,
              "z": 6.598
            }
          },
          {
            "elSymbol": "H",
            "p3d": {
              "x": 6.3745,
              "y": 5.367,
              "z": 7.3292
            }
          },
          {
            "elSymbol": "C",
            "p3d": {
              "x": 7.4705,
              "y": 5.1358,
              "z": 5.5039
            }
          },
          {
            "elSymbol": "H",
            "p3d": {
              "x": 7.1596,
              "y": 4.1112,
              "z": 5.3392
            }
          },
          {
            "elSymbol": "C",
            "p3d": {
              "x": 8.3441,
              "y": 5.7392,
              "z": 4.5675
            }
          },
          {
            "elSymbol": "H",
            "p3d": {
              "x": 8.6908,
              "y": 5.1616,
              "z": 3.701
            }
          },
          {
            "elSymbol": "C",
            "p3d": {
              "x": 8.7529,
              "y": 7.0311,
              "z": 4.694
            }
          },
          {
            "elSymbol": "H",
            "p3d": {
              "x": 9.424,
              "y": 7.4893,
              "z": 3.9498
            }
          },
          {
            "elSymbol": "C",
            "p3d": {
              "x": 8.3101,
              "y": 7.7617,
              "z": 5.8077
            }
          },
          {
            "elSymbol": "C",
            "p3d": {
              "x": 6.3606,
              "y": 8.0074,
              "z": 9.0072
            }
          },
          {
            "elSymbol": "H",
            "p3d": {
              "x": 5.3323,
              "y": 7.8023,
              "z": 8.7023
            }
          },
          {
            "elSymbol": "H",
            "p3d": {
              "x": 6.7225,
              "y": 7.1449,
              "z": 9.551
            }
          },
          {
            "elSymbol": "C",
            "p3d": {
              "x": 7.0777,
              "y": 10.3774,
              "z": 9.7037
            }
          },
          {
            "elSymbol": "C",
            "p3d": {
              "x": 6.3769,
              "y": 9.2031,
              "z": 9.8991
            }
          },
          {
            "elSymbol": "C",
            "p3d": {
              "x": 5.6859,
              "y": 9.3381,
              "z": 11.1369
            }
          },
          {
            "elSymbol": "C",
            "p3d": {
              "x": 4.7979,
              "y": 8.509,
              "z": 11.8479
            }
          },
          {
            "elSymbol": "H",
            "p3d": {
              "x": 4.5514,
              "y": 7.5178,
              "z": 11.4749
            }
          },
          {
            "elSymbol": "C",
            "p3d": {
              "x": 4.2496,
              "y": 8.9952,
              "z": 13.0233
            }
          },
          {
            "elSymbol": "H",
            "p3d": {
              "x": 3.5227,
              "y": 8.3741,
              "z": 13.5615
            }
          },
          {
            "elSymbol": "C",
            "p3d": {
              "x": 4.59,
              "y": 10.2669,
              "z": 13.5215
            }
          },
          {
            "elSymbol": "H",
            "p3d": {
              "x": 4.1412,
              "y": 10.5932,
              "z": 14.4483
            }
          },
          {
            "elSymbol": "C",
            "p3d": {
              "x": 5.4622,
              "y": 11.0858,
              "z": 12.854
            }
          },
          {
            "elSymbol": "H",
            "p3d": {
              "x": 5.7481,
              "y": 12.0539,
              "z": 13.2582
            }
          },
          {
            "elSymbol": "C",
            "p3d": {
              "x": 6.0068,
              "y": 10.6045,
              "z": 11.6592
            }
          },
          {
            "elSymbol": "H",
            "p3d": {
              "x": 7.1991,
              "y": 12.1768,
              "z": 10.8969
            }
          },
          {
            "elSymbol": "H",
            "p3d": {
              "x": 9.0993,
              "y": 9.7292,
              "z": 5.6737
            }
          }
        ],
        "bonds": [
          {
            "atomIds": [
              1,
              3
            ],
            "bo": "SINGLE"
          },
          {
            "atomIds": [
              2,
              18
            ],
            "bo": "SINGLE"
          },
          {
            "atomIds": [
              3,
              0
            ],
            "bo": "SINGLE"
          },
          {
            "atomIds": [
              4,
              3
            ],
            "bo": "DOUBLE"
          },
          {
            "atomIds": [
              5,
              4
            ],
            "bo": "SINGLE"
          },
          {
            "atomIds": [
              5,
              14
            ],
            "bo": "DOUBLE"
          },
          {
            "atomIds": [
              6,
              5
            ],
            "bo": "SINGLE"
          },
          {
            "atomIds": [
              7,
              6
            ],
            "bo": "SINGLE"
          },
          {
            "atomIds": [
              8,
              6
            ],
            "bo": "DOUBLE"
          },
          {
            "atomIds": [
              9,
              8
            ],
            "bo": "SINGLE"
          },
          {
            "atomIds": [
              10,
              8
            ],
            "bo": "SINGLE"
          },
          {
            "atomIds": [
              11,
              10
            ],
            "bo": "SINGLE"
          },
          {
            "atomIds": [
              12,
              10
            ],
            "bo": "DOUBLE"
          },
          {
            "atomIds": [
              12,
              14
            ],
            "bo": "SINGLE"
          },
          {
            "atomIds": [
              13,
              12
            ],
            "bo": "SINGLE"
          },
          {
            "atomIds": [
              14,
              1
            ],
            "bo": "SINGLE"
          },
          {
            "atomIds": [
              15,
              4
            ],
            "bo": "SINGLE"
          },
          {
            "atomIds": [
              16,
              15
            ],
            "bo": "SINGLE"
          },
          {
            "atomIds": [
              17,
              15
            ],
            "bo": "SINGLE"
          },
          {
            "atomIds": [
              18,
              0
            ],
            "bo": "SINGLE"
          },
          {
            "atomIds": [
              18,
              19
            ],
            "bo": "DOUBLE"
          },
          {
            "atomIds": [
              19,
              15
            ],
            "bo": "SINGLE"
          },
          {
            "atomIds": [
              20,
              19
            ],
            "bo": "SINGLE"
          },
          {
            "atomIds": [
              20,
              29
            ],
            "bo": "DOUBLE"
          },
          {
            "atomIds": [
              21,
              20
            ],
            "bo": "SINGLE"
          },
          {
            "atomIds": [
              22,
              21
            ],
            "bo": "SINGLE"
          },
          {
            "atomIds": [
              23,
              21
            ],
            "bo": "DOUBLE"
          },
          {
            "atomIds": [
              24,
              23
            ],
            "bo": "SINGLE"
          },
          {
            "atomIds": [
              25,
              23
            ],
            "bo": "SINGLE"
          },
          {
            "atomIds": [
              26,
              25
            ],
            "bo": "SINGLE"
          },
          {
            "atomIds": [
              27,
              25
            ],
            "bo": "DOUBLE"
          },
          {
            "atomIds": [
              27,
              29
            ],
            "bo": "SINGLE"
          },
          {
            "atomIds": [
              28,
              27
            ],
            "bo": "SINGLE"
          },
          {
            "atomIds": [
              29,
              2
            ],
            "bo": "SINGLE"
          },
          {
            "atomIds": [
              30,
              2
            ],
            "bo": "SINGLE"
          },
          {
            "atomIds": [
              31,
              1
            ],
            "bo": "SINGLE"
          }
        ]
      },
      "vertexId": 106,
      "buildingBlockId": 43,
      "buildingBlockType": "FRAGMENT",
      "isRCV": false,
      "properties": {
        "ATTACHMENT_POINTS": "1#LPhosphineSubM:0:SINGLE:9.6921%11.1939%8.6295,MPhosphine:1:SINGLE:6.9761%12.5800%7.2794 "
      },
      "uniquefyingPropertyKeys": [],
      "allowedMutationTypes": [
        "DELETE",
        "EXTEND",
        "CHANGEBRANCH",
        "CHANGELINK",
        "ADDLINK",
        "DELETELINK",
        "DELETECHAIN"
      ],
      "vertexType": "MolecularFragment"
    },
    {
      "lstAPs": [
        {
          "id": 29441,
          "atomPositionNumber": 0,
          "atomPositionNumberInMol": 56,
          "apClass": {
            "rule": "Xlig",
            "subClass": 1,
            "bndTyp": "SINGLE"
          },
          "dirVec": {
            "x": -0.0053,
            "y": -0.0027,
            "z": 0.63
          }
        }
      ],
      "lstSymAPs": [],
      "mol": {
        "atoms": [
          {
            "elSymbol": "Cl",
            "p3d": {
              "x": 2.3243,
              "y": -0.0063,
              "z": 0.8189
            }
          }
        ],
        "bonds": []
      },
      "vertexId": 88,
      "buildingBlockId": 66,
      "buildingBlockType": "FRAGMENT",
      "isRCV": false,
      "properties": {
        "ATTACHMENT_POINTS": "1#Xlig:1:SINGLE:-0.0053%-0.0027%0.6300 "
      },
      "uniquefyingPropertyKeys": [],
      "allowedMutationTypes": [
        "DELETE",
        "EXTEND",
        "CHANGEBRANCH",
        "CHANGELINK",
        "ADDLINK",
        "DELETELINK",
        "DELETECHAIN"
      ],
      "vertexType": "MolecularFragment"
    },
    {
      "lstAPs": [
        {
          "id": 29466,
          "atomPositionNumber": 0,
          "atomPositionNumberInMol": 42,
          "apClass": {
            "rule": "SubArM",
            "subClass": 1,
            "bndTyp": "SINGLE"
          },
          "dirVec": {
            "x": 0.3016,
            "y": 0.3831,
            "z": -0.6449
          }
        }
      ],
      "lstSymAPs": [],
      "mol": {
        "atoms": [
          {
            "elSymbol": "C",
            "p3d": {
              "x": 1.7096,
              "y": 0.5525,
              "z": -1.2136
            }
          },
          {
            "elSymbol": "C",
            "p3d": {
              "x": 4.2502,
              "y": 0.8767,
              "z": -2.2636
            }
          },
          {
            "elSymbol": "C",
            "p3d": {
              "x": 2.3368,
              "y": 1.7899,
              "z": -1.1199
            }
          },
          {
            "elSymbol": "C",
            "p3d": {
              "x": 2.344,
              "y": -0.5151,
              "z": -1.819
            }
          },
          {
            "elSymbol": "C",
            "p3d": {
              "x": 3.6162,
              "y": -0.3625,
              "z": -2.3439
            }
          },
          {
            "elSymbol": "C",
            "p3d": {
              "x": 3.6039,
              "y": 1.9353,
              "z": -1.6584
            }
          },
          {
            "elSymbol": "H",
            "p3d": {
              "x": 1.8411,
              "y": -1.493,
              "z": -1.8837
            }
          },
          {
            "elSymbol": "H",
            "p3d": {
              "x": 4.113,
              "y": -1.2006,
              "z": -2.8069
            }
          },
          {
            "elSymbol": "H",
            "p3d": {
              "x": 4.1107,
              "y": 2.9115,
              "z": -1.5913
            }
          },
          {
            "elSymbol": "H",
            "p3d": {
              "x": 5.2516,
              "y": 0.992,
              "z": -2.67
            }
          },
          {
            "elSymbol": "C",
            "p3d": {
              "x": 1.6301,
              "y": 2.9729,
              "z": -0.4606
            }
          },
          {
            "elSymbol": "H",
            "p3d": {
              "x": 2.3743,
              "y": 3.6775,
              "z": -0.0646
            }
          },
          {
            "elSymbol": "H",
            "p3d": {
              "x": 1.0016,
              "y": 2.6144,
              "z": 0.3512
            }
          },
          {
            "elSymbol": "H",
            "p3d": {
              "x": 1.0097,
              "y": 3.4845,
              "z": -1.1971
            }
          }
        ],
        "bonds": [
          {
            "atomIds": [
              0,
              3
            ],
            "bo": "SINGLE"
          },
          {
            "atomIds": [
              3,
              4
            ],
            "bo": "DOUBLE"
          },
          {
            "atomIds": [
              1,
              4
            ],
            "bo": "SINGLE"
          },
          {
            "atomIds": [
              1,
              5
            ],
            "bo": "DOUBLE"
          },
          {
            "atomIds": [
              2,
              5
            ],
            "bo": "SINGLE"
          },
          {
            "atomIds": [
              0,
              2
            ],
            "bo": "DOUBLE"
          },
          {
            "atomIds": [
              4,
              7
            ],
            "bo": "SINGLE"
          },
          {
            "atomIds": [
              5,
              8
            ],
            "bo": "SINGLE"
          },
          {
            "atomIds": [
              1,
              9
            ],
            "bo": "SINGLE"
          },
          {
            "atomIds": [
              3,
              6
            ],
            "bo": "SINGLE"
          },
          {
            "atomIds": [
              10,
              11
            ],
            "bo": "SINGLE"
          },
          {
            "atomIds": [
              10,
              12
            ],
            "bo": "SINGLE"
          },
          {
            "atomIds": [
              10,
              13
            ],
            "bo": "SINGLE"
          },
          {
            "atomIds": [
              2,
              10
            ],
            "bo": "SINGLE"
          }
        ]
      },
      "vertexId": 21254,
      "buildingBlockId": 36,
      "buildingBlockType": "FRAGMENT",
      "isRCV": false,
      "properties": {
        "ATTACHMENT_POINTS": "1#SubArM:1:SINGLE:0.3016%0.3831%-0.6449 "
      },
      "uniquefyingPropertyKeys": [],
      "allowedMutationTypes": [
        "DELETE",
        "EXTEND",
        "CHANGEBRANCH",
        "CHANGELINK",
        "ADDLINK",
        "DELETELINK",
        "DELETECHAIN"
      ],
      "vertexType": "MolecularFragment"
    }
  ],
  "gEdges": [
    {
      "srcAPID": 29435,
      "trgAPID": 29438,
      "bondType": "SINGLE"
    },
    {
      "srcAPID": 29437,
      "trgAPID": 29440,
      "bondType": "SINGLE"
    },
    {
      "srcAPID": 29436,
      "trgAPID": 29441,
      "bondType": "SINGLE"
    },
    {
      "srcAPID": 29439,
      "trgAPID": 29466,
      "bondType": "SINGLE"
    }
  ],
  "gRings": [],
  "symVertices": []
}

> <SMILES>
[Pt](C#O)(SC([H])([H])[H])([P]1(C=2N(C3=C(C2C([H])([H])C4=C1N(C5=C4C([H])=C([H])C([H])=C5[H])[H])C([H])=C([H])C([H])=C3[H])[H])C=6C(=C(C(=C(C6C([H])([H])[H])[H])[H])[H])[H])Cl

$$$$
