M00010382
  CDK     04222212233D

 38 39  0  0  0  0  0  0  0  0999 V2000
   -2.5881    0.2485   -0.9296 Pt  0  0  0  0  0  0  0  0  0  0  0  0
   -4.5559    0.2368   -0.7600 C   0  0  0  0  0  0  0  0  0  0  0  0
   -5.6917    0.2145   -0.6727 O   0  0  0  0  0  0  0  0  0  0  0  0
   -2.4659    2.0067   -0.0363 C   0  0  0  0  0  0  0  0  0  0  0  0
   -2.4384    3.0279    0.5054 N   0  0  0  0  0  0  0  0  0  0  0  0
   -0.3192    0.2554   -1.0593 P   0  0  0  0  0  0  0  0  0  0  0  0
    0.6161    1.7169   -1.2360 N   0  0  0  0  0  0  0  0  0  0  0  0
    1.4751    1.5712   -2.3687 C   0  0  0  0  0  0  0  0  0  0  0  0
    2.1511    2.3783   -2.6197 H   0  0  0  0  0  0  0  0  0  0  0  0
    1.3425    0.3905   -3.0361 C   0  0  0  0  0  0  0  0  0  0  0  0
    1.8936    0.0835   -3.9158 H   0  0  0  0  0  0  0  0  0  0  0  0
    0.3576   -0.4825   -2.4913 N   0  0  0  0  0  0  0  0  0  0  0  0
    0.2249   -0.7203    0.4785 C   0  0  0  0  0  0  0  0  0  0  0  0
    2.0295   -1.1862    2.1637 C   0  0  0  0  0  0  0  0  0  0  0  0
   -0.4059   -1.2034    2.8651 C   0  0  0  0  0  0  0  0  0  0  0  0
    1.0358   -0.9071    3.2996 C   0  0  0  0  0  0  0  0  0  0  0  0
   -0.7831   -0.4182    1.5959 C   0  0  0  0  0  0  0  0  0  0  0  0
    1.6619   -0.3980    0.8943 C   0  0  0  0  0  0  0  0  0  0  0  0
    2.0498   -2.2704    1.9413 H   0  0  0  0  0  0  0  0  0  0  0  0
   -0.5291   -2.2889    2.6852 H   0  0  0  0  0  0  0  0  0  0  0  0
    1.1205    0.1487    3.6219 H   0  0  0  0  0  0  0  0  0  0  0  0
   -0.8067    0.6642    1.8465 H   0  0  0  0  0  0  0  0  0  0  0  0
    1.7928    0.6847    1.0976 H   0  0  0  0  0  0  0  0  0  0  0  0
    0.1606   -1.8106    0.2183 H   0  0  0  0  0  0  0  0  0  0  0  0
    3.0544   -0.9211    2.4845 H   0  0  0  0  0  0  0  0  0  0  0  0
   -1.1069   -0.9485    3.6826 H   0  0  0  0  0  0  0  0  0  0  0  0
    1.2945   -1.5177    4.1852 H   0  0  0  0  0  0  0  0  0  0  0  0
   -1.8223   -0.6972    1.2953 H   0  0  0  0  0  0  0  0  0  0  0  0
    2.3789   -0.6493    0.0870 H   0  0  0  0  0  0  0  0  0  0  0  0
   -0.0240   -1.7719   -3.0923 C   0  0  0  0  0  0  0  0  0  0  0  0
   -0.9017   -1.6560   -3.7618 H   0  0  0  0  0  0  0  0  0  0  0  0
    0.8118   -2.1809   -3.6853 H   0  0  0  0  0  0  0  0  0  0  0  0
   -0.2894   -2.5189   -2.3211 H   0  0  0  0  0  0  0  0  0  0  0  0
    0.5785    2.9442   -0.4222 C   0  0  0  0  0  0  0  0  0  0  0  0
    1.5742    3.4219   -0.4084 H   0  0  0  0  0  0  0  0  0  0  0  0
   -0.1481    3.6756   -0.8314 H   0  0  0  0  0  0  0  0  0  0  0  0
    0.2949    2.7347    0.6254 H   0  0  0  0  0  0  0  0  0  0  0  0
   -3.0226   -1.8572   -1.9255 Cl  0  0  0  0  0  0  0  0  0  0  0  0
  2  3  3  0  0  0  0
  1  2  1  0  0  0  0
  4  5  3  0  0  0  0
  1  4  1  0  0  0  0
  7  6  1  0  0  0  0
  8  7  1  0  0  0  0
  9  8  1  0  0  0  0
 10  8  2  0  0  0  0
 10 12  1  0  0  0  0
 11 10  1  0  0  0  0
 12  6  1  0  0  0  0
  1  6  1  0  0  0  0
 13 24  1  0  0  0  0
 13 17  1  0  0  0  0
 13 18  1  0  0  0  0
 14 19  1  0  0  0  0
 14 25  1  0  0  0  0
 14 16  1  0  0  0  0
 14 18  1  0  0  0  0
 15 20  1  0  0  0  0
 15 26  1  0  0  0  0
 15 17  1  0  0  0  0
 15 16  1  0  0  0  0
 16 21  1  0  0  0  0
 16 27  1  0  0  0  0
 17 22  1  0  0  0  0
 17 28  1  0  0  0  0
 18 23  1  0  0  0  0
 18 29  1  0  0  0  0
  6 13  1  0  0  0  0
 30 31  1  0  0  0  0
 30 32  1  0  0  0  0
 30 33  1  0  0  0  0
 12 30  1  0  0  0  0
 34 35  1  0  0  0  0
 34 36  1  0  0  0  0
 34 37  1  0  0  0  0
  7 34  1  0  0  0  0
  1 38  1  0  0  0  0
M  END
> <PM6_ENERGY>
-117.860

> <UID>
SNFIJNZKMNNNKB-FRQBNRGANA-M

> <FITNESS>
1.13937

> <GCODE>
11379

> <GraphENC>
11379 72_1_0,81_66_1,98_1_1,88_67_1,233016_35_1,233411_31_1,233022_31_1, 72_0_81_0_SINGLE_Xlig:0_Xlig:1,72_2_98_1_SINGLE_scaff:0_MBisAminoPhosphine:1,72_1_88_0_SINGLE_Xlig:0_Xlig:1,98_0_233016_0_SINGLE_LBisAminoPhosphineSubR:0_SubRM:1,98_3_233411_0_SINGLE_LCycloBisAminoPhospholeSubN:0_SubRS:1,98_2_233022_0_SINGLE_LCycloBisAminoPhospholeSubN:0_SubRS:1, SymmetricSet [symIds=[233411, 233022]] 

> <GraphJson>
{
  "graphId": 11379,
  "gVertices": [
    {
      "lstAPs": [
        {
          "id": 304647,
          "atomPositionNumber": 0,
          "atomPositionNumberInMol": 0,
          "apClass": {
            "rule": "Xlig",
            "subClass": 0,
            "bndTyp": "SINGLE"
          },
          "dirVec": {
            "x": -2.3339,
            "y": -0.0087,
            "z": 0.8172
          }
        },
        {
          "id": 304648,
          "atomPositionNumber": 0,
          "atomPositionNumberInMol": 0,
          "apClass": {
            "rule": "Xlig",
            "subClass": 0,
            "bndTyp": "SINGLE"
          },
          "dirVec": {
            "x": 2.336,
            "y": -5.0E-4,
            "z": 0.829
          }
        },
        {
          "id": 304649,
          "atomPositionNumber": 0,
          "atomPositionNumberInMol": 0,
          "apClass": {
            "rule": "scaff",
            "subClass": 0,
            "bndTyp": "SINGLE"
          },
          "dirVec": {
            "x": -0.0095,
            "y": 0.0046,
            "z": -1.7113
          }
        }
      ],
      "lstSymAPs": [
        {
          "symIds": [
            0,
            1
          ]
        }
      ],
      "mol": {
        "atoms": [
          {
            "elSymbol": "Pt",
            "p3d": {
              "x": -0.0098,
              "y": 0.0049,
              "z": 0.6289
            }
          },
          {
            "elSymbol": "C",
            "p3d": {
              "x": -6.0E-4,
              "y": 0.0016,
              "z": 2.5609
            }
          },
          {
            "elSymbol": "O",
            "p3d": {
              "x": 0.0025,
              "y": -0.0041,
              "z": 3.6974
            }
          },
          {
            "elSymbol": "Du",
            "p3d": {
              "x": -0.007,
              "y": 1.0013,
              "z": 0.6372
            }
          },
          {
            "elSymbol": "Du",
            "p3d": {
              "x": -0.0014,
              "y": 0.9902,
              "z": 2.5698
            }
          }
        ],
        "bonds": [
          {
            "atomIds": [
              1,
              2
            ],
            "bo": "TRIPLE"
          },
          {
            "atomIds": [
              0,
              1
            ],
            "bo": "SINGLE"
          },
          {
            "atomIds": [
              3,
              0
            ],
            "bo": "SINGLE"
          },
          {
            "atomIds": [
              4,
              1
            ],
            "bo": "SINGLE"
          }
        ]
      },
      "vertexId": 72,
      "buildingBlockId": 0,
      "buildingBlockType": "SCAFFOLD",
      "isRCV": false,
      "properties": {
        "ATTACHMENT_POINTS": "1#Xlig:0:SINGLE:-2.3339%-0.0087%0.8172,Xlig:0:SINGLE:2.3360%-0.0005%0.8290,scaff:0:SINGLE:-0.0095%0.0046%-1.7113 "
      },
      "uniquefyingPropertyKeys": [],
      "allowedMutationTypes": [
        "DELETE",
        "EXTEND",
        "CHANGEBRANCH",
        "CHANGELINK",
        "ADDLINK",
        "DELETELINK",
        "DELETECHAIN"
      ],
      "vertexType": "MolecularFragment"
    },
    {
      "lstAPs": [
        {
          "id": 304650,
          "atomPositionNumber": 0,
          "atomPositionNumberInMol": 5,
          "apClass": {
            "rule": "Xlig",
            "subClass": 1,
            "bndTyp": "SINGLE"
          },
          "dirVec": {
            "x": 0.0192,
            "y": -0.0048,
            "z": -0.5645
          }
        }
      ],
      "lstSymAPs": [],
      "mol": {
        "atoms": [
          {
            "elSymbol": "C",
            "p3d": {
              "x": -1.967,
              "y": -0.0075,
              "z": -0.4937
            }
          },
          {
            "elSymbol": "N",
            "p3d": {
              "x": -3.1263,
              "y": -0.0054,
              "z": -0.4354
            }
          },
          {
            "elSymbol": "Du",
            "p3d": {
              "x": -1.9744,
              "y": 0.9926,
              "z": -0.5036
            }
          }
        ],
        "bonds": [
          {
            "atomIds": [
              0,
              1
            ],
            "bo": "TRIPLE"
          },
          {
            "atomIds": [
              2,
              0
            ],
            "bo": "SINGLE"
          }
        ]
      },
      "vertexId": 81,
      "buildingBlockId": 65,
      "buildingBlockType": "FRAGMENT",
      "isRCV": false,
      "properties": {
        "ATTACHMENT_POINTS": "1#Xlig:1:SINGLE:0.0192%-0.0048%-0.5645 "
      },
      "uniquefyingPropertyKeys": [],
      "allowedMutationTypes": [
        "DELETE",
        "EXTEND",
        "CHANGEBRANCH",
        "CHANGELINK",
        "ADDLINK",
        "DELETELINK",
        "DELETECHAIN"
      ],
      "vertexType": "MolecularFragment"
    },
    {
      "lstAPs": [
        {
          "id": 304651,
          "atomPositionNumber": 0,
          "atomPositionNumberInMol": 8,
          "apClass": {
            "rule": "LBisAminoPhosphineSubR",
            "subClass": 0,
            "bndTyp": "SINGLE"
          },
          "dirVec": {
            "x": 0.3903,
            "y": 10.7729,
            "z": 7.1334
          }
        },
        {
          "id": 304652,
          "atomPositionNumber": 0,
          "atomPositionNumberInMol": 8,
          "apClass": {
            "rule": "MBisAminoPhosphine",
            "subClass": 1,
            "bndTyp": "SINGLE"
          },
          "dirVec": {
            "x": 3.6116,
            "y": 11.0342,
            "z": 7.1611
          }
        },
        {
          "id": 304653,
          "atomPositionNumber": 1,
          "atomPositionNumberInMol": 9,
          "apClass": {
            "rule": "LCycloBisAminoPhospholeSubN",
            "subClass": 0,
            "bndTyp": "SINGLE"
          },
          "dirVec": {
            "x": 2.2148,
            "y": 8.0833,
            "z": 4.9044
          }
        },
        {
          "id": 304654,
          "atomPositionNumber": 6,
          "atomPositionNumberInMol": 14,
          "apClass": {
            "rule": "LCycloBisAminoPhospholeSubN",
            "subClass": 0,
            "bndTyp": "SINGLE"
          },
          "dirVec": {
            "x": 1.6922,
            "y": 13.2521,
            "z": 4.8571
          }
        }
      ],
      "lstSymAPs": [
        {
          "symIds": [
            2,
            3
          ]
        }
      ],
      "mol": {
        "atoms": [
          {
            "elSymbol": "P",
            "p3d": {
              "x": 1.8143,
              "y": 10.6855,
              "z": 5.9523
            }
          },
          {
            "elSymbol": "N",
            "p3d": {
              "x": 1.6265,
              "y": 9.4144,
              "z": 4.8677
            }
          },
          {
            "elSymbol": "C",
            "p3d": {
              "x": 1.0259,
              "y": 9.8892,
              "z": 3.6721
            }
          },
          {
            "elSymbol": "H",
            "p3d": {
              "x": 0.6933,
              "y": 9.2356,
              "z": 2.8689
            }
          },
          {
            "elSymbol": "C",
            "p3d": {
              "x": 0.9201,
              "y": 11.2066,
              "z": 3.6217
            }
          },
          {
            "elSymbol": "H",
            "p3d": {
              "x": 0.5137,
              "y": 11.7372,
              "z": 2.7731
            }
          },
          {
            "elSymbol": "N",
            "p3d": {
              "x": 1.3983,
              "y": 11.8325,
              "z": 4.7913
            }
          }
        ],
        "bonds": [
          {
            "atomIds": [
              1,
              0
            ],
            "bo": "SINGLE"
          },
          {
            "atomIds": [
              2,
              1
            ],
            "bo": "SINGLE"
          },
          {
            "atomIds": [
              3,
              2
            ],
            "bo": "SINGLE"
          },
          {
            "atomIds": [
              4,
              2
            ],
            "bo": "DOUBLE"
          },
          {
            "atomIds": [
              4,
              6
            ],
            "bo": "SINGLE"
          },
          {
            "atomIds": [
              5,
              4
            ],
            "bo": "SINGLE"
          },
          {
            "atomIds": [
              6,
              0
            ],
            "bo": "SINGLE"
          }
        ]
      },
      "vertexId": 98,
      "buildingBlockId": 0,
      "buildingBlockType": "FRAGMENT",
      "isRCV": false,
      "properties": {
        "ATTACHMENT_POINTS": "1#LBisAminoPhosphineSubR:0:SINGLE:0.3903%10.7729%7.1334,MBisAminoPhosphine:1:SINGLE:3.6116%11.0342%7.1611 2#LCycloBisAminoPhospholeSubN:0:SINGLE:2.2148%8.0833%4.9044 7#LCycloBisAminoPhospholeSubN:0:SINGLE:1.6922%13.2521%4.8571 "
      },
      "uniquefyingPropertyKeys": [],
      "allowedMutationTypes": [
        "DELETE",
        "EXTEND",
        "CHANGEBRANCH",
        "CHANGELINK",
        "ADDLINK",
        "DELETELINK",
        "DELETECHAIN"
      ],
      "vertexType": "MolecularFragment"
    },
    {
      "lstAPs": [
        {
          "id": 304655,
          "atomPositionNumber": 0,
          "atomPositionNumberInMol": 40,
          "apClass": {
            "rule": "Xlig",
            "subClass": 1,
            "bndTyp": "SINGLE"
          },
          "dirVec": {
            "x": -0.0053,
            "y": -0.0027,
            "z": 0.63
          }
        }
      ],
      "lstSymAPs": [],
      "mol": {
        "atoms": [
          {
            "elSymbol": "Cl",
            "p3d": {
              "x": 2.3243,
              "y": -0.0063,
              "z": 0.8189
            }
          }
        ],
        "bonds": []
      },
      "vertexId": 88,
      "buildingBlockId": 66,
      "buildingBlockType": "FRAGMENT",
      "isRCV": false,
      "properties": {
        "ATTACHMENT_POINTS": "1#Xlig:1:SINGLE:-0.0053%-0.0027%0.6300 "
      },
      "uniquefyingPropertyKeys": [],
      "allowedMutationTypes": [
        "DELETE",
        "EXTEND",
        "CHANGEBRANCH",
        "CHANGELINK",
        "ADDLINK",
        "DELETELINK",
        "DELETECHAIN"
      ],
      "vertexType": "MolecularFragment"
    },
    {
      "lstAPs": [
        {
          "id": 304692,
          "atomPositionNumber": 0,
          "atomPositionNumberInMol": 15,
          "apClass": {
            "rule": "SubRM",
            "subClass": 1,
            "bndTyp": "SINGLE"
          },
          "dirVec": {
            "x": 0.2917,
            "y": 0.3929,
            "z": -0.6365
          }
        }
      ],
      "lstSymAPs": [],
      "mol": {
        "atoms": [
          {
            "elSymbol": "C",
            "p3d": {
              "x": 1.7002,
              "y": 0.56,
              "z": -1.2045
            }
          },
          {
            "elSymbol": "C",
            "p3d": {
              "x": 3.564,
              "y": -0.7339,
              "z": -2.2652
            }
          },
          {
            "elSymbol": "C",
            "p3d": {
              "x": 2.9237,
              "y": 1.5034,
              "z": -3.1926
            }
          },
          {
            "elSymbol": "C",
            "p3d": {
              "x": 3.4145,
              "y": 0.0994,
              "z": -3.5498
            }
          },
          {
            "elSymbol": "C",
            "p3d": {
              "x": 1.5576,
              "y": 1.3879,
              "z": -2.5024
            }
          },
          {
            "elSymbol": "C",
            "p3d": {
              "x": 2.203,
              "y": -0.843,
              "z": -1.5702
            }
          },
          {
            "elSymbol": "H",
            "p3d": {
              "x": 4.3384,
              "y": -0.3241,
              "z": -1.6106
            }
          },
          {
            "elSymbol": "H",
            "p3d": {
              "x": 3.6361,
              "y": 2.0524,
              "z": -2.5991
            }
          },
          {
            "elSymbol": "H",
            "p3d": {
              "x": 2.7828,
              "y": -0.3911,
              "z": -4.2916
            }
          },
          {
            "elSymbol": "H",
            "p3d": {
              "x": 0.7737,
              "y": 0.9833,
              "z": -3.15
            }
          },
          {
            "elSymbol": "H",
            "p3d": {
              "x": 1.4815,
              "y": -1.3988,
              "z": -2.1783
            }
          },
          {
            "elSymbol": "H",
            "p3d": {
              "x": 2.3445,
              "y": 1.0609,
              "z": -0.4835
            }
          },
          {
            "elSymbol": "H",
            "p3d": {
              "x": 3.8429,
              "y": -1.7623,
              "z": -2.577
            }
          },
          {
            "elSymbol": "H",
            "p3d": {
              "x": 2.7428,
              "y": 2.0124,
              "z": -4.146
            }
          },
          {
            "elSymbol": "H",
            "p3d": {
              "x": 4.4291,
              "y": 0.2183,
              "z": -3.9628
            }
          },
          {
            "elSymbol": "H",
            "p3d": {
              "x": 1.2819,
              "y": 2.4034,
              "z": -2.1821
            }
          },
          {
            "elSymbol": "H",
            "p3d": {
              "x": 2.3734,
              "y": -1.3662,
              "z": -0.6149
            }
          }
        ],
        "bonds": [
          {
            "atomIds": [
              0,
              11
            ],
            "bo": "SINGLE"
          },
          {
            "atomIds": [
              0,
              4
            ],
            "bo": "SINGLE"
          },
          {
            "atomIds": [
              0,
              5
            ],
            "bo": "SINGLE"
          },
          {
            "atomIds": [
              1,
              6
            ],
            "bo": "SINGLE"
          },
          {
            "atomIds": [
              1,
              12
            ],
            "bo": "SINGLE"
          },
          {
            "atomIds": [
              1,
              3
            ],
            "bo": "SINGLE"
          },
          {
            "atomIds": [
              1,
              5
            ],
            "bo": "SINGLE"
          },
          {
            "atomIds": [
              2,
              7
            ],
            "bo": "SINGLE"
          },
          {
            "atomIds": [
              2,
              13
            ],
            "bo": "SINGLE"
          },
          {
            "atomIds": [
              2,
              4
            ],
            "bo": "SINGLE"
          },
          {
            "atomIds": [
              2,
              3
            ],
            "bo": "SINGLE"
          },
          {
            "atomIds": [
              3,
              8
            ],
            "bo": "SINGLE"
          },
          {
            "atomIds": [
              3,
              14
            ],
            "bo": "SINGLE"
          },
          {
            "atomIds": [
              4,
              9
            ],
            "bo": "SINGLE"
          },
          {
            "atomIds": [
              4,
              15
            ],
            "bo": "SINGLE"
          },
          {
            "atomIds": [
              5,
              10
            ],
            "bo": "SINGLE"
          },
          {
            "atomIds": [
              5,
              16
            ],
            "bo": "SINGLE"
          }
        ]
      },
      "vertexId": 233016,
      "buildingBlockId": 34,
      "buildingBlockType": "FRAGMENT",
      "isRCV": false,
      "properties": {
        "ATTACHMENT_POINTS": "1#SubRM:1:SINGLE:0.2917%0.3929%-0.6365 "
      },
      "uniquefyingPropertyKeys": [],
      "allowedMutationTypes": [
        "DELETE",
        "EXTEND",
        "CHANGEBRANCH",
        "CHANGELINK",
        "ADDLINK",
        "DELETELINK",
        "DELETECHAIN"
      ],
      "vertexType": "MolecularFragment"
    },
    {
      "lstAPs": [
        {
          "id": 304693,
          "atomPositionNumber": 0,
          "atomPositionNumberInMol": 32,
          "apClass": {
            "rule": "SubRS",
            "subClass": 1,
            "bndTyp": "SINGLE"
          },
          "dirVec": {
            "x": 0.2865,
            "y": 0.3959,
            "z": -0.6387
          }
        }
      ],
      "lstSymAPs": [],
      "mol": {
        "atoms": [
          {
            "elSymbol": "C",
            "p3d": {
              "x": 0.3969,
              "y": -0.0496,
              "z": 0.8235
            }
          },
          {
            "elSymbol": "H",
            "p3d": {
              "x": -0.6146,
              "y": -0.163,
              "z": 1.2402
            }
          },
          {
            "elSymbol": "H",
            "p3d": {
              "x": 0.9335,
              "y": -0.9979,
              "z": 0.8998
            }
          },
          {
            "elSymbol": "H",
            "p3d": {
              "x": 0.9252,
              "y": 0.7237,
              "z": 1.3995
            }
          }
        ],
        "bonds": [
          {
            "atomIds": [
              0,
              1
            ],
            "bo": "SINGLE"
          },
          {
            "atomIds": [
              0,
              2
            ],
            "bo": "SINGLE"
          },
          {
            "atomIds": [
              0,
              3
            ],
            "bo": "SINGLE"
          }
        ]
      },
      "vertexId": 233411,
      "buildingBlockId": 30,
      "buildingBlockType": "FRAGMENT",
      "isRCV": false,
      "properties": {
        "ATTACHMENT_POINTS": "1#SubRS:1:SINGLE:0.2865%0.3959%-0.6387 "
      },
      "uniquefyingPropertyKeys": [],
      "allowedMutationTypes": [
        "DELETE",
        "EXTEND",
        "CHANGEBRANCH",
        "CHANGELINK",
        "ADDLINK",
        "DELETELINK",
        "DELETECHAIN"
      ],
      "vertexType": "MolecularFragment"
    },
    {
      "lstAPs": [
        {
          "id": 304694,
          "atomPositionNumber": 0,
          "atomPositionNumberInMol": 36,
          "apClass": {
            "rule": "SubRS",
            "subClass": 1,
            "bndTyp": "SINGLE"
          },
          "dirVec": {
            "x": 0.2865,
            "y": 0.3959,
            "z": -0.6387
          }
        }
      ],
      "lstSymAPs": [],
      "mol": {
        "atoms": [
          {
            "elSymbol": "C",
            "p3d": {
              "x": 0.3969,
              "y": -0.0496,
              "z": 0.8235
            }
          },
          {
            "elSymbol": "H",
            "p3d": {
              "x": -0.6146,
              "y": -0.163,
              "z": 1.2402
            }
          },
          {
            "elSymbol": "H",
            "p3d": {
              "x": 0.9335,
              "y": -0.9979,
              "z": 0.8998
            }
          },
          {
            "elSymbol": "H",
            "p3d": {
              "x": 0.9252,
              "y": 0.7237,
              "z": 1.3995
            }
          }
        ],
        "bonds": [
          {
            "atomIds": [
              0,
              1
            ],
            "bo": "SINGLE"
          },
          {
            "atomIds": [
              0,
              2
            ],
            "bo": "SINGLE"
          },
          {
            "atomIds": [
              0,
              3
            ],
            "bo": "SINGLE"
          }
        ]
      },
      "vertexId": 233022,
      "buildingBlockId": 30,
      "buildingBlockType": "FRAGMENT",
      "isRCV": false,
      "properties": {
        "ATTACHMENT_POINTS": "1#SubRS:1:SINGLE:0.2865%0.3959%-0.6387 "
      },
      "uniquefyingPropertyKeys": [],
      "allowedMutationTypes": [
        "DELETE",
        "EXTEND",
        "CHANGEBRANCH",
        "CHANGELINK",
        "ADDLINK",
        "DELETELINK",
        "DELETECHAIN"
      ],
      "vertexType": "MolecularFragment"
    }
  ],
  "gEdges": [
    {
      "srcAPID": 304647,
      "trgAPID": 304650,
      "bondType": "SINGLE"
    },
    {
      "srcAPID": 304649,
      "trgAPID": 304652,
      "bondType": "SINGLE"
    },
    {
      "srcAPID": 304648,
      "trgAPID": 304655,
      "bondType": "SINGLE"
    },
    {
      "srcAPID": 304651,
      "trgAPID": 304692,
      "bondType": "SINGLE"
    },
    {
      "srcAPID": 304654,
      "trgAPID": 304693,
      "bondType": "SINGLE"
    },
    {
      "srcAPID": 304653,
      "trgAPID": 304694,
      "bondType": "SINGLE"
    }
  ],
  "gRings": [],
  "symVertices": [
    {
      "symIds": [
        233411,
        233022
      ]
    }
  ]
}

> <SMILES>
[Pt](C#O)(C#N)([P]1(N(C([H])=C(N1C([H])([H])[H])[H])C([H])([H])[H])C2([H])C(C([H])([H])C(C([H])([H])C2([H])[H])([H])[H])([H])[H])Cl

$$$$
