M00004253
  CDK     04222210143D

 59 65  0  0  0  0  0  0  0  0999 V2000
   -2.9616   -0.3281    0.2909 Pt  0  0  0  0  0  0  0  0  0  0  0  0
   -4.8801   -0.3706    0.6044 C   0  0  0  0  0  0  0  0  0  0  0  0
   -6.0055   -0.4273    0.7921 O   0  0  0  0  0  0  0  0  0  0  0  0
   -2.8572    1.5419    1.1931 O   0  0  0  0  0  0  0  0  0  0  0  0
   -3.3332    2.5389    0.3174 C   0  0  0  0  0  0  0  0  0  0  0  0
   -3.2536    3.4899    0.8629 H   0  0  0  0  0  0  0  0  0  0  0  0
   -4.3821    2.3392    0.0652 H   0  0  0  0  0  0  0  0  0  0  0  0
   -2.7148    2.5672   -0.5901 H   0  0  0  0  0  0  0  0  0  0  0  0
   -0.7007   -0.4070   -0.0439 P   0  0  0  0  0  0  0  0  0  0  0  0
   -0.2506    2.1650    1.1058 N   0  0  0  0  0  0  0  0  0  0  0  0
   -0.5261   -1.8702   -2.5195 N   0  0  0  0  0  0  0  0  0  0  0  0
    0.1273    1.2012    0.1704 C   0  0  0  0  0  0  0  0  0  0  0  0
    1.2166    1.6306   -0.5844 C   0  0  0  0  0  0  0  0  0  0  0  0
    1.5808    2.9193   -0.0656 C   0  0  0  0  0  0  0  0  0  0  0  0
    2.5933    3.8548   -0.3782 C   0  0  0  0  0  0  0  0  0  0  0  0
    3.3000    3.6345   -1.1749 H   0  0  0  0  0  0  0  0  0  0  0  0
    2.6599    5.0288    0.3401 C   0  0  0  0  0  0  0  0  0  0  0  0
    3.4302    5.7655    0.1210 H   0  0  0  0  0  0  0  0  0  0  0  0
    1.7305    5.3156    1.3849 C   0  0  0  0  0  0  0  0  0  0  0  0
    1.8324    6.2607    1.9186 H   0  0  0  0  0  0  0  0  0  0  0  0
    0.7267    4.4364    1.7232 C   0  0  0  0  0  0  0  0  0  0  0  0
    0.0155    4.6471    2.5158 H   0  0  0  0  0  0  0  0  0  0  0  0
    0.6506    3.2234    0.9929 C   0  0  0  0  0  0  0  0  0  0  0  0
    1.8515    0.9163   -1.7241 C   0  0  0  0  0  0  0  0  0  0  0  0
    2.0677    1.6488   -2.5396 H   0  0  0  0  0  0  0  0  0  0  0  0
    2.8518    0.5294   -1.4091 H   0  0  0  0  0  0  0  0  0  0  0  0
   -0.0489   -0.8484   -1.6904 C   0  0  0  0  0  0  0  0  0  0  0  0
    1.0428   -0.2062   -2.2754 C   0  0  0  0  0  0  0  0  0  0  0  0
    1.2666   -0.8536   -3.5394 C   0  0  0  0  0  0  0  0  0  0  0  0
    2.2023   -0.6725   -4.5837 C   0  0  0  0  0  0  0  0  0  0  0  0
    2.9568    0.1065   -4.4998 H   0  0  0  0  0  0  0  0  0  0  0  0
    2.1328   -1.4931   -5.6885 C   0  0  0  0  0  0  0  0  0  0  0  0
    2.8400   -1.3755   -6.5074 H   0  0  0  0  0  0  0  0  0  0  0  0
    1.1400   -2.5132   -5.7964 C   0  0  0  0  0  0  0  0  0  0  0  0
    1.1327   -3.1317   -6.6947 H   0  0  0  0  0  0  0  0  0  0  0  0
    0.2083   -2.7252   -4.8050 C   0  0  0  0  0  0  0  0  0  0  0  0
   -0.5515   -3.4981   -4.8795 H   0  0  0  0  0  0  0  0  0  0  0  0
    0.2727   -1.8854   -3.6651 C   0  0  0  0  0  0  0  0  0  0  0  0
   -1.3040   -2.4887   -2.3352 H   0  0  0  0  0  0  0  0  0  0  0  0
   -1.0589    2.0997    1.7332 H   0  0  0  0  0  0  0  0  0  0  0  0
    1.4603   -2.3484   -0.3014 H   0  0  0  0  0  0  0  0  0  0  0  0
    1.0857   -2.3796    0.7278 C   0  0  0  0  0  0  0  0  0  0  0  0
    0.0567   -1.5882    1.1751 C   0  0  0  0  0  0  0  0  0  0  0  0
    1.3065   -3.3873    2.9184 C   0  0  0  0  0  0  0  0  0  0  0  0
   -0.4090   -1.6493    2.5263 C   0  0  0  0  0  0  0  0  0  0  0  0
    1.7190   -3.2975    1.6136 C   0  0  0  0  0  0  0  0  0  0  0  0
    0.2399   -2.5669    3.4035 C   0  0  0  0  0  0  0  0  0  0  0  0
   -1.4767   -0.8537    3.0588 C   0  0  0  0  0  0  0  0  0  0  0  0
    2.5285   -3.9202    1.2345 H   0  0  0  0  0  0  0  0  0  0  0  0
    0.3329   -3.3777    5.4195 H   0  0  0  0  0  0  0  0  0  0  0  0
    1.7833   -4.0863    3.6074 H   0  0  0  0  0  0  0  0  0  0  0  0
   -1.8535   -0.9698    4.3746 C   0  0  0  0  0  0  0  0  0  0  0  0
   -2.0137   -0.1289    2.4319 H   0  0  0  0  0  0  0  0  0  0  0  0
   -2.6644   -0.3577    4.7727 H   0  0  0  0  0  0  0  0  0  0  0  0
   -1.1991   -1.8872    5.2452 C   0  0  0  0  0  0  0  0  0  0  0  0
   -1.5248   -1.9549    6.2822 H   0  0  0  0  0  0  0  0  0  0  0  0
   -0.1778   -2.6676    4.7691 C   0  0  0  0  0  0  0  0  0  0  0  0
   -3.0682   -2.1414   -0.4724 C   0  0  0  0  0  0  0  0  0  0  0  0
   -3.1267   -3.2030   -0.9289 N   0  0  0  0  0  0  0  0  0  0  0  0
  2  3  3  0  0  0  0
  1  2  1  0  0  0  0
  5  6  1  0  0  0  0
  5  7  1  0  0  0  0
  5  8  1  0  0  0  0
  4  5  1  0  0  0  0
  1  4  1  0  0  0  0
 10 12  1  0  0  0  0
 11 27  1  0  0  0  0
 12  9  1  0  0  0  0
 13 12  2  0  0  0  0
 14 13  1  0  0  0  0
 14 23  2  0  0  0  0
 15 14  1  0  0  0  0
 16 15  1  0  0  0  0
 17 15  2  0  0  0  0
 18 17  1  0  0  0  0
 19 17  1  0  0  0  0
 20 19  1  0  0  0  0
 21 19  2  0  0  0  0
 21 23  1  0  0  0  0
 22 21  1  0  0  0  0
 23 10  1  0  0  0  0
 24 13  1  0  0  0  0
 25 24  1  0  0  0  0
 26 24  1  0  0  0  0
 27  9  1  0  0  0  0
 27 28  2  0  0  0  0
 28 24  1  0  0  0  0
 29 28  1  0  0  0  0
 29 38  2  0  0  0  0
 30 29  1  0  0  0  0
 31 30  1  0  0  0  0
 32 30  2  0  0  0  0
 33 32  1  0  0  0  0
 34 32  1  0  0  0  0
 35 34  1  0  0  0  0
 36 34  2  0  0  0  0
 36 38  1  0  0  0  0
 37 36  1  0  0  0  0
 38 11  1  0  0  0  0
 39 11  1  0  0  0  0
 40 10  1  0  0  0  0
  1  9  1  0  0  0  0
 41 42  1  0  0  0  0
 42 43  1  0  0  0  0
 42 46  2  0  0  0  0
 43 45  2  0  0  0  0
 45 47  1  0  0  0  0
 44 46  1  0  0  0  0
 44 47  2  0  0  0  0
 48 45  1  0  0  0  0
 47 57  1  0  0  0  0
 48 52  2  0  0  0  0
 52 55  1  0  0  0  0
 55 57  2  0  0  0  0
 44 51  1  0  0  0  0
 46 49  1  0  0  0  0
 48 53  1  0  0  0  0
 50 57  1  0  0  0  0
 55 56  1  0  0  0  0
 52 54  1  0  0  0  0
  9 43  1  0  0  0  0
 58 59  3  0  0  0  0
  1 58  1  0  0  0  0
M  END
> <PM6_ENERGY>
373.488

> <UID>
LWGWYOUSASRASM-DGDFHLPUNA-N

> <FITNESS>
1.14235

> <GCODE>
5008

> <GraphENC>
5008 72_1_0,80_65_1,106_44_1,87_66_1,98078_39_1, 72_0_80_0_SINGLE_Xlig:0_Xlig:1,72_2_106_1_SINGLE_scaff:0_MPhosphine:1,72_1_87_0_SINGLE_Xlig:0_Xlig:1,106_0_98078_0_SINGLE_LPhosphineSubM:0_SubArM:1, 

> <GraphJson>
{
  "graphId": 5008,
  "gVertices": [
    {
      "lstAPs": [
        {
          "id": 129173,
          "atomPositionNumber": 0,
          "atomPositionNumberInMol": 0,
          "apClass": {
            "rule": "Xlig",
            "subClass": 0,
            "bndTyp": "SINGLE"
          },
          "dirVec": {
            "x": -2.3339,
            "y": -0.0087,
            "z": 0.8172
          }
        },
        {
          "id": 129174,
          "atomPositionNumber": 0,
          "atomPositionNumberInMol": 0,
          "apClass": {
            "rule": "Xlig",
            "subClass": 0,
            "bndTyp": "SINGLE"
          },
          "dirVec": {
            "x": 2.336,
            "y": -5.0E-4,
            "z": 0.829
          }
        },
        {
          "id": 129175,
          "atomPositionNumber": 0,
          "atomPositionNumberInMol": 0,
          "apClass": {
            "rule": "scaff",
            "subClass": 0,
            "bndTyp": "SINGLE"
          },
          "dirVec": {
            "x": -0.0095,
            "y": 0.0046,
            "z": -1.7113
          }
        }
      ],
      "lstSymAPs": [
        {
          "symIds": [
            0,
            1
          ]
        }
      ],
      "mol": {
        "atoms": [
          {
            "elSymbol": "Pt",
            "p3d": {
              "x": -0.0098,
              "y": 0.0049,
              "z": 0.6289
            }
          },
          {
            "elSymbol": "C",
            "p3d": {
              "x": -6.0E-4,
              "y": 0.0016,
              "z": 2.5609
            }
          },
          {
            "elSymbol": "O",
            "p3d": {
              "x": 0.0025,
              "y": -0.0041,
              "z": 3.6974
            }
          },
          {
            "elSymbol": "Du",
            "p3d": {
              "x": -0.007,
              "y": 1.0013,
              "z": 0.6372
            }
          },
          {
            "elSymbol": "Du",
            "p3d": {
              "x": -0.0014,
              "y": 0.9902,
              "z": 2.5698
            }
          }
        ],
        "bonds": [
          {
            "atomIds": [
              1,
              2
            ],
            "bo": "TRIPLE"
          },
          {
            "atomIds": [
              0,
              1
            ],
            "bo": "SINGLE"
          },
          {
            "atomIds": [
              3,
              0
            ],
            "bo": "SINGLE"
          },
          {
            "atomIds": [
              4,
              1
            ],
            "bo": "SINGLE"
          }
        ]
      },
      "vertexId": 72,
      "buildingBlockId": 0,
      "buildingBlockType": "SCAFFOLD",
      "isRCV": false,
      "properties": {
        "ATTACHMENT_POINTS": "1#Xlig:0:SINGLE:-2.3339%-0.0087%0.8172,Xlig:0:SINGLE:2.3360%-0.0005%0.8290,scaff:0:SINGLE:-0.0095%0.0046%-1.7113 "
      },
      "uniquefyingPropertyKeys": [],
      "allowedMutationTypes": [
        "DELETE",
        "EXTEND",
        "CHANGEBRANCH",
        "CHANGELINK",
        "ADDLINK",
        "DELETELINK",
        "DELETECHAIN"
      ],
      "vertexType": "MolecularFragment"
    },
    {
      "lstAPs": [
        {
          "id": 129176,
          "atomPositionNumber": 0,
          "atomPositionNumberInMol": 5,
          "apClass": {
            "rule": "Xlig",
            "subClass": 1,
            "bndTyp": "SINGLE"
          },
          "dirVec": {
            "x": -0.1753,
            "y": 0.0948,
            "z": -0.4464
          }
        }
      ],
      "lstSymAPs": [],
      "mol": {
        "atoms": [
          {
            "elSymbol": "O",
            "p3d": {
              "x": -0.3534,
              "y": 2.1044,
              "z": -0.7339
            }
          },
          {
            "elSymbol": "C",
            "p3d": {
              "x": -0.5345,
              "y": 2.7646,
              "z": 0.4801
            }
          },
          {
            "elSymbol": "H",
            "p3d": {
              "x": -0.3728,
              "y": 3.8337,
              "z": 0.2724
            }
          },
          {
            "elSymbol": "H",
            "p3d": {
              "x": 0.1816,
              "y": 2.4161,
              "z": 1.2384
            }
          },
          {
            "elSymbol": "H",
            "p3d": {
              "x": -1.553,
              "y": 2.6149,
              "z": 0.8489
            }
          }
        ],
        "bonds": [
          {
            "atomIds": [
              1,
              2
            ],
            "bo": "SINGLE"
          },
          {
            "atomIds": [
              1,
              3
            ],
            "bo": "SINGLE"
          },
          {
            "atomIds": [
              1,
              4
            ],
            "bo": "SINGLE"
          },
          {
            "atomIds": [
              0,
              1
            ],
            "bo": "SINGLE"
          }
        ]
      },
      "vertexId": 80,
      "buildingBlockId": 64,
      "buildingBlockType": "FRAGMENT",
      "isRCV": false,
      "properties": {
        "ATTACHMENT_POINTS": "1#Xlig:1:SINGLE:-0.1753%0.0948%-0.4464 "
      },
      "uniquefyingPropertyKeys": [],
      "allowedMutationTypes": [
        "DELETE",
        "EXTEND",
        "CHANGEBRANCH",
        "CHANGELINK",
        "ADDLINK",
        "DELETELINK",
        "DELETECHAIN"
      ],
      "vertexType": "MolecularFragment"
    },
    {
      "lstAPs": [
        {
          "id": 129177,
          "atomPositionNumber": 0,
          "atomPositionNumberInMol": 10,
          "apClass": {
            "rule": "LPhosphineSubM",
            "subClass": 0,
            "bndTyp": "SINGLE"
          },
          "dirVec": {
            "x": 9.6921,
            "y": 11.1939,
            "z": 8.6295
          }
        },
        {
          "id": 129178,
          "atomPositionNumber": 0,
          "atomPositionNumberInMol": 10,
          "apClass": {
            "rule": "MPhosphine",
            "subClass": 1,
            "bndTyp": "SINGLE"
          },
          "dirVec": {
            "x": 6.9761,
            "y": 12.58,
            "z": 7.2794
          }
        }
      ],
      "lstSymAPs": [],
      "mol": {
        "atoms": [
          {
            "elSymbol": "P",
            "p3d": {
              "x": 7.9602,
              "y": 10.8392,
              "z": 8.2268
            }
          },
          {
            "elSymbol": "N",
            "p3d": {
              "x": 8.5483,
              "y": 9.0407,
              "z": 6.1703
            }
          },
          {
            "elSymbol": "N",
            "p3d": {
              "x": 6.8549,
              "y": 11.2353,
              "z": 10.7656
            }
          },
          {
            "elSymbol": "C",
            "p3d": {
              "x": 7.892,
              "y": 9.2815,
              "z": 7.3648
            }
          },
          {
            "elSymbol": "C",
            "p3d": {
              "x": 7.2175,
              "y": 8.1492,
              "z": 7.7741
            }
          },
          {
            "elSymbol": "C",
            "p3d": {
              "x": 7.4688,
              "y": 7.1556,
              "z": 6.7782
            }
          },
          {
            "elSymbol": "C",
            "p3d": {
              "x": 7.0398,
              "y": 5.8455,
              "z": 6.598
            }
          },
          {
            "elSymbol": "H",
            "p3d": {
              "x": 6.3745,
              "y": 5.367,
              "z": 7.3292
            }
          },
          {
            "elSymbol": "C",
            "p3d": {
              "x": 7.4705,
              "y": 5.1358,
              "z": 5.5039
            }
          },
          {
            "elSymbol": "H",
            "p3d": {
              "x": 7.1596,
              "y": 4.1112,
              "z": 5.3392
            }
          },
          {
            "elSymbol": "C",
            "p3d": {
              "x": 8.3441,
              "y": 5.7392,
              "z": 4.5675
            }
          },
          {
            "elSymbol": "H",
            "p3d": {
              "x": 8.6908,
              "y": 5.1616,
              "z": 3.701
            }
          },
          {
            "elSymbol": "C",
            "p3d": {
              "x": 8.7529,
              "y": 7.0311,
              "z": 4.694
            }
          },
          {
            "elSymbol": "H",
            "p3d": {
              "x": 9.424,
              "y": 7.4893,
              "z": 3.9498
            }
          },
          {
            "elSymbol": "C",
            "p3d": {
              "x": 8.3101,
              "y": 7.7617,
              "z": 5.8077
            }
          },
          {
            "elSymbol": "C",
            "p3d": {
              "x": 6.3606,
              "y": 8.0074,
              "z": 9.0072
            }
          },
          {
            "elSymbol": "H",
            "p3d": {
              "x": 5.3323,
              "y": 7.8023,
              "z": 8.7023
            }
          },
          {
            "elSymbol": "H",
            "p3d": {
              "x": 6.7225,
              "y": 7.1449,
              "z": 9.551
            }
          },
          {
            "elSymbol": "C",
            "p3d": {
              "x": 7.0777,
              "y": 10.3774,
              "z": 9.7037
            }
          },
          {
            "elSymbol": "C",
            "p3d": {
              "x": 6.3769,
              "y": 9.2031,
              "z": 9.8991
            }
          },
          {
            "elSymbol": "C",
            "p3d": {
              "x": 5.6859,
              "y": 9.3381,
              "z": 11.1369
            }
          },
          {
            "elSymbol": "C",
            "p3d": {
              "x": 4.7979,
              "y": 8.509,
              "z": 11.8479
            }
          },
          {
            "elSymbol": "H",
            "p3d": {
              "x": 4.5514,
              "y": 7.5178,
              "z": 11.4749
            }
          },
          {
            "elSymbol": "C",
            "p3d": {
              "x": 4.2496,
              "y": 8.9952,
              "z": 13.0233
            }
          },
          {
            "elSymbol": "H",
            "p3d": {
              "x": 3.5227,
              "y": 8.3741,
              "z": 13.5615
            }
          },
          {
            "elSymbol": "C",
            "p3d": {
              "x": 4.59,
              "y": 10.2669,
              "z": 13.5215
            }
          },
          {
            "elSymbol": "H",
            "p3d": {
              "x": 4.1412,
              "y": 10.5932,
              "z": 14.4483
            }
          },
          {
            "elSymbol": "C",
            "p3d": {
              "x": 5.4622,
              "y": 11.0858,
              "z": 12.854
            }
          },
          {
            "elSymbol": "H",
            "p3d": {
              "x": 5.7481,
              "y": 12.0539,
              "z": 13.2582
            }
          },
          {
            "elSymbol": "C",
            "p3d": {
              "x": 6.0068,
              "y": 10.6045,
              "z": 11.6592
            }
          },
          {
            "elSymbol": "H",
            "p3d": {
              "x": 7.1991,
              "y": 12.1768,
              "z": 10.8969
            }
          },
          {
            "elSymbol": "H",
            "p3d": {
              "x": 9.0993,
              "y": 9.7292,
              "z": 5.6737
            }
          }
        ],
        "bonds": [
          {
            "atomIds": [
              1,
              3
            ],
            "bo": "SINGLE"
          },
          {
            "atomIds": [
              2,
              18
            ],
            "bo": "SINGLE"
          },
          {
            "atomIds": [
              3,
              0
            ],
            "bo": "SINGLE"
          },
          {
            "atomIds": [
              4,
              3
            ],
            "bo": "DOUBLE"
          },
          {
            "atomIds": [
              5,
              4
            ],
            "bo": "SINGLE"
          },
          {
            "atomIds": [
              5,
              14
            ],
            "bo": "DOUBLE"
          },
          {
            "atomIds": [
              6,
              5
            ],
            "bo": "SINGLE"
          },
          {
            "atomIds": [
              7,
              6
            ],
            "bo": "SINGLE"
          },
          {
            "atomIds": [
              8,
              6
            ],
            "bo": "DOUBLE"
          },
          {
            "atomIds": [
              9,
              8
            ],
            "bo": "SINGLE"
          },
          {
            "atomIds": [
              10,
              8
            ],
            "bo": "SINGLE"
          },
          {
            "atomIds": [
              11,
              10
            ],
            "bo": "SINGLE"
          },
          {
            "atomIds": [
              12,
              10
            ],
            "bo": "DOUBLE"
          },
          {
            "atomIds": [
              12,
              14
            ],
            "bo": "SINGLE"
          },
          {
            "atomIds": [
              13,
              12
            ],
            "bo": "SINGLE"
          },
          {
            "atomIds": [
              14,
              1
            ],
            "bo": "SINGLE"
          },
          {
            "atomIds": [
              15,
              4
            ],
            "bo": "SINGLE"
          },
          {
            "atomIds": [
              16,
              15
            ],
            "bo": "SINGLE"
          },
          {
            "atomIds": [
              17,
              15
            ],
            "bo": "SINGLE"
          },
          {
            "atomIds": [
              18,
              0
            ],
            "bo": "SINGLE"
          },
          {
            "atomIds": [
              18,
              19
            ],
            "bo": "DOUBLE"
          },
          {
            "atomIds": [
              19,
              15
            ],
            "bo": "SINGLE"
          },
          {
            "atomIds": [
              20,
              19
            ],
            "bo": "SINGLE"
          },
          {
            "atomIds": [
              20,
              29
            ],
            "bo": "DOUBLE"
          },
          {
            "atomIds": [
              21,
              20
            ],
            "bo": "SINGLE"
          },
          {
            "atomIds": [
              22,
              21
            ],
            "bo": "SINGLE"
          },
          {
            "atomIds": [
              23,
              21
            ],
            "bo": "DOUBLE"
          },
          {
            "atomIds": [
              24,
              23
            ],
            "bo": "SINGLE"
          },
          {
            "atomIds": [
              25,
              23
            ],
            "bo": "SINGLE"
          },
          {
            "atomIds": [
              26,
              25
            ],
            "bo": "SINGLE"
          },
          {
            "atomIds": [
              27,
              25
            ],
            "bo": "DOUBLE"
          },
          {
            "atomIds": [
              27,
              29
            ],
            "bo": "SINGLE"
          },
          {
            "atomIds": [
              28,
              27
            ],
            "bo": "SINGLE"
          },
          {
            "atomIds": [
              29,
              2
            ],
            "bo": "SINGLE"
          },
          {
            "atomIds": [
              30,
              2
            ],
            "bo": "SINGLE"
          },
          {
            "atomIds": [
              31,
              1
            ],
            "bo": "SINGLE"
          }
        ]
      },
      "vertexId": 106,
      "buildingBlockId": 43,
      "buildingBlockType": "FRAGMENT",
      "isRCV": false,
      "properties": {
        "ATTACHMENT_POINTS": "1#LPhosphineSubM:0:SINGLE:9.6921%11.1939%8.6295,MPhosphine:1:SINGLE:6.9761%12.5800%7.2794 "
      },
      "uniquefyingPropertyKeys": [],
      "allowedMutationTypes": [
        "DELETE",
        "EXTEND",
        "CHANGEBRANCH",
        "CHANGELINK",
        "ADDLINK",
        "DELETELINK",
        "DELETECHAIN"
      ],
      "vertexType": "MolecularFragment"
    },
    {
      "lstAPs": [
        {
          "id": 129179,
          "atomPositionNumber": 0,
          "atomPositionNumberInMol": 59,
          "apClass": {
            "rule": "Xlig",
            "subClass": 1,
            "bndTyp": "SINGLE"
          },
          "dirVec": {
            "x": 0.0192,
            "y": -0.0048,
            "z": -0.5645
          }
        }
      ],
      "lstSymAPs": [],
      "mol": {
        "atoms": [
          {
            "elSymbol": "C",
            "p3d": {
              "x": -1.967,
              "y": -0.0075,
              "z": -0.4937
            }
          },
          {
            "elSymbol": "N",
            "p3d": {
              "x": -3.1263,
              "y": -0.0054,
              "z": -0.4354
            }
          },
          {
            "elSymbol": "Du",
            "p3d": {
              "x": -1.9744,
              "y": 0.9926,
              "z": -0.5036
            }
          }
        ],
        "bonds": [
          {
            "atomIds": [
              0,
              1
            ],
            "bo": "TRIPLE"
          },
          {
            "atomIds": [
              2,
              0
            ],
            "bo": "SINGLE"
          }
        ]
      },
      "vertexId": 87,
      "buildingBlockId": 65,
      "buildingBlockType": "FRAGMENT",
      "isRCV": false,
      "properties": {
        "ATTACHMENT_POINTS": "1#Xlig:1:SINGLE:0.0192%-0.0048%-0.5645 "
      },
      "uniquefyingPropertyKeys": [],
      "allowedMutationTypes": [
        "DELETE",
        "EXTEND",
        "CHANGEBRANCH",
        "CHANGELINK",
        "ADDLINK",
        "DELETELINK",
        "DELETECHAIN"
      ],
      "vertexType": "MolecularFragment"
    },
    {
      "lstAPs": [
        {
          "id": 129204,
          "atomPositionNumber": 2,
          "atomPositionNumberInMol": 44,
          "apClass": {
            "rule": "SubArM",
            "subClass": 1,
            "bndTyp": "SINGLE"
          },
          "dirVec": {
            "x": 0.2839,
            "y": 0.3907,
            "z": -0.6271
          }
        }
      ],
      "lstSymAPs": [],
      "mol": {
        "atoms": [
          {
            "elSymbol": "H",
            "p3d": {
              "x": 1.8079,
              "y": 2.6521,
              "z": -0.6457
            }
          },
          {
            "elSymbol": "C",
            "p3d": {
              "x": 2.3292,
              "y": 1.8028,
              "z": -1.1346
            }
          },
          {
            "elSymbol": "C",
            "p3d": {
              "x": 1.6928,
              "y": 0.5701,
              "z": -1.2214
            }
          },
          {
            "elSymbol": "C",
            "p3d": {
              "x": 4.26,
              "y": 0.9161,
              "z": -2.2564
            }
          },
          {
            "elSymbol": "C",
            "p3d": {
              "x": 2.3547,
              "y": -0.5116,
              "z": -1.8205
            }
          },
          {
            "elSymbol": "C",
            "p3d": {
              "x": 3.6118,
              "y": 1.9867,
              "z": -1.654
            }
          },
          {
            "elSymbol": "C",
            "p3d": {
              "x": 3.6519,
              "y": -0.333,
              "z": -2.339
            }
          },
          {
            "elSymbol": "C",
            "p3d": {
              "x": 1.7318,
              "y": -1.7781,
              "z": -1.8989
            }
          },
          {
            "elSymbol": "H",
            "p3d": {
              "x": 4.0936,
              "y": 2.9609,
              "z": -1.5808
            }
          },
          {
            "elSymbol": "H",
            "p3d": {
              "x": 5.3077,
              "y": -1.3005,
              "z": -3.3639
            }
          },
          {
            "elSymbol": "H",
            "p3d": {
              "x": 5.2705,
              "y": 1.0583,
              "z": -2.6578
            }
          },
          {
            "elSymbol": "C",
            "p3d": {
              "x": 2.3998,
              "y": -2.8526,
              "z": -2.5007
            }
          },
          {
            "elSymbol": "H",
            "p3d": {
              "x": 0.724,
              "y": -1.9306,
              "z": -1.4908
            }
          },
          {
            "elSymbol": "H",
            "p3d": {
              "x": 1.9155,
              "y": -3.8304,
              "z": -2.576
            }
          },
          {
            "elSymbol": "C",
            "p3d": {
              "x": 3.684,
              "y": -2.6697,
              "z": -3.0355
            }
          },
          {
            "elSymbol": "H",
            "p3d": {
              "x": 4.2028,
              "y": -3.5195,
              "z": -3.4955
            }
          },
          {
            "elSymbol": "C",
            "p3d": {
              "x": 4.3092,
              "y": -1.4197,
              "z": -2.9387
            }
          }
        ],
        "bonds": [
          {
            "atomIds": [
              0,
              1
            ],
            "bo": "SINGLE"
          },
          {
            "atomIds": [
              1,
              2
            ],
            "bo": "SINGLE"
          },
          {
            "atomIds": [
              1,
              5
            ],
            "bo": "DOUBLE"
          },
          {
            "atomIds": [
              2,
              4
            ],
            "bo": "DOUBLE"
          },
          {
            "atomIds": [
              4,
              6
            ],
            "bo": "SINGLE"
          },
          {
            "atomIds": [
              3,
              5
            ],
            "bo": "SINGLE"
          },
          {
            "atomIds": [
              3,
              6
            ],
            "bo": "DOUBLE"
          },
          {
            "atomIds": [
              7,
              4
            ],
            "bo": "SINGLE"
          },
          {
            "atomIds": [
              6,
              16
            ],
            "bo": "SINGLE"
          },
          {
            "atomIds": [
              7,
              11
            ],
            "bo": "DOUBLE"
          },
          {
            "atomIds": [
              11,
              14
            ],
            "bo": "SINGLE"
          },
          {
            "atomIds": [
              14,
              16
            ],
            "bo": "DOUBLE"
          },
          {
            "atomIds": [
              3,
              10
            ],
            "bo": "SINGLE"
          },
          {
            "atomIds": [
              5,
              8
            ],
            "bo": "SINGLE"
          },
          {
            "atomIds": [
              7,
              12
            ],
            "bo": "SINGLE"
          },
          {
            "atomIds": [
              9,
              16
            ],
            "bo": "SINGLE"
          },
          {
            "atomIds": [
              14,
              15
            ],
            "bo": "SINGLE"
          },
          {
            "atomIds": [
              11,
              13
            ],
            "bo": "SINGLE"
          }
        ]
      },
      "vertexId": 98078,
      "buildingBlockId": 38,
      "buildingBlockType": "FRAGMENT",
      "isRCV": false,
      "properties": {
        "ATTACHMENT_POINTS": "3#SubArM:1:SINGLE:0.2839%0.3907%-0.6271 "
      },
      "uniquefyingPropertyKeys": [],
      "allowedMutationTypes": [
        "DELETE",
        "EXTEND",
        "CHANGEBRANCH",
        "CHANGELINK",
        "ADDLINK",
        "DELETELINK",
        "DELETECHAIN"
      ],
      "vertexType": "MolecularFragment"
    }
  ],
  "gEdges": [
    {
      "srcAPID": 129173,
      "trgAPID": 129176,
      "bondType": "SINGLE"
    },
    {
      "srcAPID": 129175,
      "trgAPID": 129178,
      "bondType": "SINGLE"
    },
    {
      "srcAPID": 129174,
      "trgAPID": 129179,
      "bondType": "SINGLE"
    },
    {
      "srcAPID": 129177,
      "trgAPID": 129204,
      "bondType": "SINGLE"
    }
  ],
  "gRings": [],
  "symVertices": []
}

> <SMILES>
[Pt](C#O)(OC([H])([H])[H])([P]1(C=2N(C3=C(C2C([H])([H])C4=C1N(C5=C4C([H])=C([H])C([H])=C5[H])[H])C([H])=C([H])C([H])=C3[H])[H])C=6C([H])=C(C(=C7C6C(=C(C(=C7[H])[H])[H])[H])[H])[H])C#N

$$$$
