M00000898
  CDK     04222208573D

 35 36  0  0  0  0  0  0  0  0999 V2000
   -2.6443   -0.5987    1.2180 Pt  0  0  0  0  0  0  0  0  0  0  0  0
   -4.5719   -0.7453    1.4452 C   0  0  0  0  0  0  0  0  0  0  0  0
   -5.7017   -0.8257    1.5851 O   0  0  0  0  0  0  0  0  0  0  0  0
   -2.9706    1.6366    1.6880 S   0  0  0  0  0  0  0  0  0  0  0  0
   -3.0503    2.1907   -0.0358 C   0  0  0  0  0  0  0  0  0  0  0  0
   -3.9021    2.8696   -0.1631 H   0  0  0  0  0  0  0  0  0  0  0  0
   -3.1807    1.3408   -0.7191 H   0  0  0  0  0  0  0  0  0  0  0  0
   -2.1359    2.7257   -0.3117 H   0  0  0  0  0  0  0  0  0  0  0  0
    0.4567   -1.4998   -0.1875 C   0  0  0  0  0  0  0  0  0  0  0  0
    1.1913   -0.7226   -0.9991 C   0  0  0  0  0  0  0  0  0  0  0  0
    1.9455   -1.2376   -2.1822 C   0  0  0  0  0  0  0  0  0  0  0  0
    1.2135   -1.4507   -2.9958 H   0  0  0  0  0  0  0  0  0  0  0  0
    2.4052   -2.2215   -1.9464 H   0  0  0  0  0  0  0  0  0  0  0  0
    3.0185   -0.2696   -2.6920 C   0  0  0  0  0  0  0  0  0  0  0  0
    3.8841   -0.2641   -2.0006 H   0  0  0  0  0  0  0  0  0  0  0  0
    3.4105   -0.6250   -3.6646 H   0  0  0  0  0  0  0  0  0  0  0  0
    2.4503    1.1453   -2.8355 C   0  0  0  0  0  0  0  0  0  0  0  0
    1.5866    1.1384   -3.5300 H   0  0  0  0  0  0  0  0  0  0  0  0
    3.2021    1.8160   -3.2941 H   0  0  0  0  0  0  0  0  0  0  0  0
    2.0216    1.7020   -1.4730 C   0  0  0  0  0  0  0  0  0  0  0  0
    2.9239    1.9619   -0.8737 H   0  0  0  0  0  0  0  0  0  0  0  0
    1.4810    2.6627   -1.6136 H   0  0  0  0  0  0  0  0  0  0  0  0
    1.1864    0.7509   -0.6777 C   0  0  0  0  0  0  0  0  0  0  0  0
    0.4254    1.1230    0.3654 C   0  0  0  0  0  0  0  0  0  0  0  0
   -0.3688   -0.3992    1.0511 P   0  0  0  0  0  0  0  0  0  0  0  0
    0.2480    2.0999    0.7803 H   0  0  0  0  0  0  0  0  0  0  0  0
    0.2782   -2.5634   -0.2114 H   0  0  0  0  0  0  0  0  0  0  0  0
   -0.7962   -1.5574    3.5050 C   0  0  0  0  0  0  0  0  0  0  0  0
    0.2785   -0.7605    2.7832 C   0  0  0  0  0  0  0  0  0  0  0  0
   -1.0547   -2.5088    3.0043 H   0  0  0  0  0  0  0  0  0  0  0  0
   -0.4574   -1.8324    4.5155 H   0  0  0  0  0  0  0  0  0  0  0  0
   -1.7392   -0.9940    3.6411 H   0  0  0  0  0  0  0  0  0  0  0  0
    0.4920    0.1910    3.3142 H   0  0  0  0  0  0  0  0  0  0  0  0
    1.2356   -1.3170    2.7398 H   0  0  0  0  0  0  0  0  0  0  0  0
   -2.7609   -2.9612    0.7711 Cl  0  0  0  0  0  0  0  0  0  0  0  0
  2  3  3  0  0  0  0
  1  2  1  0  0  0  0
  5  6  1  0  0  0  0
  5  7  1  0  0  0  0
  5  8  1  0  0  0  0
  4  5  1  0  0  0  0
  1  4  1  0  0  0  0
  9 10  2  0  0  0  0
 10 11  1  0  0  0  0
 11 12  1  0  0  0  0
 13 11  1  0  0  0  0
 14 11  1  0  0  0  0
 15 14  1  0  0  0  0
 16 14  1  0  0  0  0
 17 14  1  0  0  0  0
 18 17  1  0  0  0  0
 19 17  1  0  0  0  0
 20 17  1  0  0  0  0
 20 23  1  0  0  0  0
 21 20  1  0  0  0  0
 22 20  1  0  0  0  0
 23 10  1  0  0  0  0
 24 23  2  0  0  0  0
 24 25  1  0  0  0  0
 25  9  1  0  0  0  0
  1 25  1  0  0  0  0
 24 26  1  0  0  0  0
  9 27  1  0  0  0  0
 28 29  1  0  0  0  0
 28 30  1  0  0  0  0
 28 31  1  0  0  0  0
 28 32  1  0  0  0  0
 29 33  1  0  0  0  0
 29 34  1  0  0  0  0
 25 29  1  0  0  0  0
  1 35  1  0  0  0  0
M  END
> <PM6_ENERGY>
-201.166

> <UID>
USHUQVUKZCAXOJ-JVBHMECWNA-L

> <FITNESS>
1.14126

> <GCODE>
1499

> <GraphENC>
1499 72_1_0,79_64_1,113_53_1,88_67_1,25242_1_2,24688_1_2,24692_32_1, 72_0_79_0_SINGLE_Xlig:0_Xlig:1,72_2_113_3_SINGLE_scaff:0_MPhosphole:1,72_1_88_0_SINGLE_Xlig:0_Xlig:1,113_1_25242_0_SINGLE_LPhospholeSubAlpha:0_hyd:1,113_0_24688_0_SINGLE_LPhospholeSubAlpha:0_hyd:1,113_2_24692_0_SINGLE_LPhospholeSubR:0_SubRS:1, SymmetricSet [symIds=[25242, 24688]] 

> <GraphJson>
{
  "graphId": 1499,
  "gVertices": [
    {
      "lstAPs": [
        {
          "id": 34609,
          "atomPositionNumber": 0,
          "atomPositionNumberInMol": 0,
          "apClass": {
            "rule": "Xlig",
            "subClass": 0,
            "bndTyp": "SINGLE"
          },
          "dirVec": {
            "x": -2.3339,
            "y": -0.0087,
            "z": 0.8172
          }
        },
        {
          "id": 34610,
          "atomPositionNumber": 0,
          "atomPositionNumberInMol": 0,
          "apClass": {
            "rule": "Xlig",
            "subClass": 0,
            "bndTyp": "SINGLE"
          },
          "dirVec": {
            "x": 2.336,
            "y": -5.0E-4,
            "z": 0.829
          }
        },
        {
          "id": 34611,
          "atomPositionNumber": 0,
          "atomPositionNumberInMol": 0,
          "apClass": {
            "rule": "scaff",
            "subClass": 0,
            "bndTyp": "SINGLE"
          },
          "dirVec": {
            "x": -0.0095,
            "y": 0.0046,
            "z": -1.7113
          }
        }
      ],
      "lstSymAPs": [
        {
          "symIds": [
            0,
            1
          ]
        }
      ],
      "mol": {
        "atoms": [
          {
            "elSymbol": "Pt",
            "p3d": {
              "x": -0.0098,
              "y": 0.0049,
              "z": 0.6289
            }
          },
          {
            "elSymbol": "C",
            "p3d": {
              "x": -6.0E-4,
              "y": 0.0016,
              "z": 2.5609
            }
          },
          {
            "elSymbol": "O",
            "p3d": {
              "x": 0.0025,
              "y": -0.0041,
              "z": 3.6974
            }
          },
          {
            "elSymbol": "Du",
            "p3d": {
              "x": -0.007,
              "y": 1.0013,
              "z": 0.6372
            }
          },
          {
            "elSymbol": "Du",
            "p3d": {
              "x": -0.0014,
              "y": 0.9902,
              "z": 2.5698
            }
          }
        ],
        "bonds": [
          {
            "atomIds": [
              1,
              2
            ],
            "bo": "TRIPLE"
          },
          {
            "atomIds": [
              0,
              1
            ],
            "bo": "SINGLE"
          },
          {
            "atomIds": [
              3,
              0
            ],
            "bo": "SINGLE"
          },
          {
            "atomIds": [
              4,
              1
            ],
            "bo": "SINGLE"
          }
        ]
      },
      "vertexId": 72,
      "buildingBlockId": 0,
      "buildingBlockType": "SCAFFOLD",
      "isRCV": false,
      "properties": {
        "ATTACHMENT_POINTS": "1#Xlig:0:SINGLE:-2.3339%-0.0087%0.8172,Xlig:0:SINGLE:2.3360%-0.0005%0.8290,scaff:0:SINGLE:-0.0095%0.0046%-1.7113 "
      },
      "uniquefyingPropertyKeys": [],
      "allowedMutationTypes": [
        "DELETE",
        "EXTEND",
        "CHANGEBRANCH",
        "CHANGELINK",
        "ADDLINK",
        "DELETELINK",
        "DELETECHAIN"
      ],
      "vertexType": "MolecularFragment"
    },
    {
      "lstAPs": [
        {
          "id": 34612,
          "atomPositionNumber": 0,
          "atomPositionNumberInMol": 5,
          "apClass": {
            "rule": "Xlig",
            "subClass": 1,
            "bndTyp": "SINGLE"
          },
          "dirVec": {
            "x": -0.102,
            "y": 0.0185,
            "z": -1.0265
          }
        }
      ],
      "lstSymAPs": [],
      "mol": {
        "atoms": [
          {
            "elSymbol": "S",
            "p3d": {
              "x": -0.3267,
              "y": 2.3403,
              "z": -1.0022
            }
          },
          {
            "elSymbol": "C",
            "p3d": {
              "x": -0.626,
              "y": 2.4866,
              "z": 0.7805
            }
          },
          {
            "elSymbol": "H",
            "p3d": {
              "x": 0.1766,
              "y": 3.089,
              "z": 1.2414
            }
          },
          {
            "elSymbol": "H",
            "p3d": {
              "x": -0.651,
              "y": 1.5065,
              "z": 1.2643
            }
          },
          {
            "elSymbol": "H",
            "p3d": {
              "x": -1.5658,
              "y": 2.981,
              "z": 0.9515
            }
          }
        ],
        "bonds": [
          {
            "atomIds": [
              1,
              2
            ],
            "bo": "SINGLE"
          },
          {
            "atomIds": [
              1,
              3
            ],
            "bo": "SINGLE"
          },
          {
            "atomIds": [
              1,
              4
            ],
            "bo": "SINGLE"
          },
          {
            "atomIds": [
              0,
              1
            ],
            "bo": "SINGLE"
          }
        ]
      },
      "vertexId": 79,
      "buildingBlockId": 63,
      "buildingBlockType": "FRAGMENT",
      "isRCV": false,
      "properties": {
        "ATTACHMENT_POINTS": "1#Xlig:1:SINGLE:-0.1020%0.0185%-1.0265 "
      },
      "uniquefyingPropertyKeys": [],
      "allowedMutationTypes": [
        "DELETE",
        "EXTEND",
        "CHANGEBRANCH",
        "CHANGELINK",
        "ADDLINK",
        "DELETELINK",
        "DELETECHAIN"
      ],
      "vertexType": "MolecularFragment"
    },
    {
      "lstAPs": [
        {
          "id": 34613,
          "atomPositionNumber": 0,
          "atomPositionNumberInMol": 10,
          "apClass": {
            "rule": "LPhospholeSubAlpha",
            "subClass": 0,
            "bndTyp": "SINGLE"
          },
          "dirVec": {
            "x": -0.8999,
            "y": 5.4204,
            "z": 13.4669
          }
        },
        {
          "id": 34614,
          "atomPositionNumber": 15,
          "atomPositionNumberInMol": 25,
          "apClass": {
            "rule": "LPhospholeSubAlpha",
            "subClass": 0,
            "bndTyp": "SINGLE"
          },
          "dirVec": {
            "x": 3.5623,
            "y": 2.5529,
            "z": 12.0521
          }
        },
        {
          "id": 34615,
          "atomPositionNumber": 16,
          "atomPositionNumberInMol": 26,
          "apClass": {
            "rule": "LPhospholeSubR",
            "subClass": 0,
            "bndTyp": "SINGLE"
          },
          "dirVec": {
            "x": 2.0225,
            "y": 5.5716,
            "z": 11.2441
          }
        },
        {
          "id": 34616,
          "atomPositionNumber": 16,
          "atomPositionNumberInMol": 26,
          "apClass": {
            "rule": "MPhosphole",
            "subClass": 1,
            "bndTyp": "SINGLE"
          },
          "dirVec": {
            "x": -0.1011,
            "y": 3.0668,
            "z": 10.3957
          }
        }
      ],
      "lstSymAPs": [
        {
          "symIds": [
            0,
            1
          ]
        }
      ],
      "mol": {
        "atoms": [
          {
            "elSymbol": "C",
            "p3d": {
              "x": 0.2969,
              "y": 4.5574,
              "z": 13.4258
            }
          },
          {
            "elSymbol": "C",
            "p3d": {
              "x": 0.8881,
              "y": 3.9044,
              "z": 14.4404
            }
          },
          {
            "elSymbol": "C",
            "p3d": {
              "x": 0.3791,
              "y": 3.8614,
              "z": 15.8547
            }
          },
          {
            "elSymbol": "H",
            "p3d": {
              "x": -0.4577,
              "y": 3.1638,
              "z": 15.8925
            }
          },
          {
            "elSymbol": "H",
            "p3d": {
              "x": 0.0028,
              "y": 4.8434,
              "z": 16.1153
            }
          },
          {
            "elSymbol": "C",
            "p3d": {
              "x": 1.435,
              "y": 3.4448,
              "z": 16.8579
            }
          },
          {
            "elSymbol": "H",
            "p3d": {
              "x": 2.1653,
              "y": 4.2406,
              "z": 16.9817
            }
          },
          {
            "elSymbol": "H",
            "p3d": {
              "x": 0.9586,
              "y": 3.2608,
              "z": 17.8327
            }
          },
          {
            "elSymbol": "C",
            "p3d": {
              "x": 2.1393,
              "y": 2.1908,
              "z": 16.397
            }
          },
          {
            "elSymbol": "H",
            "p3d": {
              "x": 1.413,
              "y": 1.4059,
              "z": 16.2173
            }
          },
          {
            "elSymbol": "H",
            "p3d": {
              "x": 2.8146,
              "y": 1.8507,
              "z": 17.1898
            }
          },
          {
            "elSymbol": "C",
            "p3d": {
              "x": 2.9464,
              "y": 2.4652,
              "z": 15.1475
            }
          },
          {
            "elSymbol": "H",
            "p3d": {
              "x": 3.7862,
              "y": 3.1033,
              "z": 15.3872
            }
          },
          {
            "elSymbol": "H",
            "p3d": {
              "x": 3.33,
              "y": 1.5425,
              "z": 14.7475
            }
          },
          {
            "elSymbol": "C",
            "p3d": {
              "x": 2.1189,
              "y": 3.16,
              "z": 14.0576
            }
          },
          {
            "elSymbol": "C",
            "p3d": {
              "x": 2.4181,
              "y": 3.1603,
              "z": 12.7535
            }
          },
          {
            "elSymbol": "P",
            "p3d": {
              "x": 1.1632,
              "y": 4.1331,
              "z": 11.8989
            }
          }
        ],
        "bonds": [
          {
            "atomIds": [
              0,
              1
            ],
            "bo": "DOUBLE"
          },
          {
            "atomIds": [
              1,
              2
            ],
            "bo": "SINGLE"
          },
          {
            "atomIds": [
              2,
              3
            ],
            "bo": "SINGLE"
          },
          {
            "atomIds": [
              4,
              2
            ],
            "bo": "SINGLE"
          },
          {
            "atomIds": [
              5,
              2
            ],
            "bo": "SINGLE"
          },
          {
            "atomIds": [
              6,
              5
            ],
            "bo": "SINGLE"
          },
          {
            "atomIds": [
              7,
              5
            ],
            "bo": "SINGLE"
          },
          {
            "atomIds": [
              8,
              5
            ],
            "bo": "SINGLE"
          },
          {
            "atomIds": [
              9,
              8
            ],
            "bo": "SINGLE"
          },
          {
            "atomIds": [
              10,
              8
            ],
            "bo": "SINGLE"
          },
          {
            "atomIds": [
              11,
              8
            ],
            "bo": "SINGLE"
          },
          {
            "atomIds": [
              11,
              14
            ],
            "bo": "SINGLE"
          },
          {
            "atomIds": [
              12,
              11
            ],
            "bo": "SINGLE"
          },
          {
            "atomIds": [
              13,
              11
            ],
            "bo": "SINGLE"
          },
          {
            "atomIds": [
              14,
              1
            ],
            "bo": "SINGLE"
          },
          {
            "atomIds": [
              15,
              14
            ],
            "bo": "DOUBLE"
          },
          {
            "atomIds": [
              15,
              16
            ],
            "bo": "SINGLE"
          },
          {
            "atomIds": [
              16,
              0
            ],
            "bo": "SINGLE"
          }
        ]
      },
      "vertexId": 113,
      "buildingBlockId": 52,
      "buildingBlockType": "FRAGMENT",
      "isRCV": false,
      "properties": {
        "ATTACHMENT_POINTS": "1#LPhospholeSubAlpha:0:SINGLE:-0.8999%5.4204%13.4669 16#LPhospholeSubAlpha:0:SINGLE:3.5623%2.5529%12.0521 17#LPhospholeSubR:0:SINGLE:2.0225%5.5716%11.2441,MPhosphole:1:SINGLE:-0.1011%3.0668%10.3957 "
      },
      "uniquefyingPropertyKeys": [],
      "allowedMutationTypes": [
        "DELETE",
        "EXTEND",
        "CHANGEBRANCH",
        "CHANGELINK",
        "ADDLINK",
        "DELETELINK",
        "DELETECHAIN"
      ],
      "vertexType": "MolecularFragment"
    },
    {
      "lstAPs": [
        {
          "id": 34617,
          "atomPositionNumber": 0,
          "atomPositionNumberInMol": 36,
          "apClass": {
            "rule": "Xlig",
            "subClass": 1,
            "bndTyp": "SINGLE"
          },
          "dirVec": {
            "x": -0.0053,
            "y": -0.0027,
            "z": 0.63
          }
        }
      ],
      "lstSymAPs": [],
      "mol": {
        "atoms": [
          {
            "elSymbol": "Cl",
            "p3d": {
              "x": 2.3243,
              "y": -0.0063,
              "z": 0.8189
            }
          }
        ],
        "bonds": []
      },
      "vertexId": 88,
      "buildingBlockId": 66,
      "buildingBlockType": "FRAGMENT",
      "isRCV": false,
      "properties": {
        "ATTACHMENT_POINTS": "1#Xlig:1:SINGLE:-0.0053%-0.0027%0.6300 "
      },
      "uniquefyingPropertyKeys": [],
      "allowedMutationTypes": [
        "DELETE",
        "EXTEND",
        "CHANGEBRANCH",
        "CHANGELINK",
        "ADDLINK",
        "DELETELINK",
        "DELETECHAIN"
      ],
      "vertexType": "MolecularFragment"
    },
    {
      "lstAPs": [
        {
          "id": 34654,
          "atomPositionNumber": 0,
          "atomPositionNumberInMol": 27,
          "apClass": {
            "rule": "hyd",
            "subClass": 1,
            "bndTyp": "SINGLE"
          },
          "dirVec": {
            "x": 0.4589,
            "y": -1.751,
            "z": 0.3869
          }
        }
      ],
      "lstSymAPs": [],
      "mol": {
        "atoms": [
          {
            "elSymbol": "H",
            "p3d": {
              "x": 0.1925,
              "y": -2.5024,
              "z": 1.1483
            }
          }
        ],
        "bonds": []
      },
      "vertexId": 25242,
      "buildingBlockId": 0,
      "buildingBlockType": "CAP",
      "isRCV": false,
      "properties": {
        "ATTACHMENT_POINTS": "1#hyd:1:SINGLE:0.4589%-1.7510%0.3869 "
      },
      "uniquefyingPropertyKeys": [],
      "allowedMutationTypes": [
        "DELETE",
        "EXTEND",
        "CHANGEBRANCH",
        "CHANGELINK",
        "ADDLINK",
        "DELETELINK",
        "DELETECHAIN"
      ],
      "vertexType": "MolecularFragment"
    },
    {
      "lstAPs": [
        {
          "id": 34655,
          "atomPositionNumber": 0,
          "atomPositionNumberInMol": 28,
          "apClass": {
            "rule": "hyd",
            "subClass": 1,
            "bndTyp": "SINGLE"
          },
          "dirVec": {
            "x": 0.4589,
            "y": -1.751,
            "z": 0.3869
          }
        }
      ],
      "lstSymAPs": [],
      "mol": {
        "atoms": [
          {
            "elSymbol": "H",
            "p3d": {
              "x": 0.1925,
              "y": -2.5024,
              "z": 1.1483
            }
          }
        ],
        "bonds": []
      },
      "vertexId": 24688,
      "buildingBlockId": 0,
      "buildingBlockType": "CAP",
      "isRCV": false,
      "properties": {
        "ATTACHMENT_POINTS": "1#hyd:1:SINGLE:0.4589%-1.7510%0.3869 "
      },
      "uniquefyingPropertyKeys": [],
      "allowedMutationTypes": [
        "DELETE",
        "EXTEND",
        "CHANGEBRANCH",
        "CHANGELINK",
        "ADDLINK",
        "DELETELINK",
        "DELETECHAIN"
      ],
      "vertexType": "MolecularFragment"
    },
    {
      "lstAPs": [
        {
          "id": 34656,
          "atomPositionNumber": 1,
          "atomPositionNumberInMol": 30,
          "apClass": {
            "rule": "SubRS",
            "subClass": 1,
            "bndTyp": "SINGLE"
          },
          "dirVec": {
            "x": 0.2985,
            "y": 0.384,
            "z": -0.6258
          }
        }
      ],
      "lstSymAPs": [],
      "mol": {
        "atoms": [
          {
            "elSymbol": "C",
            "p3d": {
              "x": -1.0244,
              "y": -0.2225,
              "z": 1.3991
            }
          },
          {
            "elSymbol": "C",
            "p3d": {
              "x": 0.3973,
              "y": -0.042,
              "z": 0.8195
            }
          },
          {
            "elSymbol": "H",
            "p3d": {
              "x": -1.5635,
              "y": -0.9908,
              "z": 0.8263
            }
          },
          {
            "elSymbol": "H",
            "p3d": {
              "x": -0.941,
              "y": -0.535,
              "z": 2.446
            }
          },
          {
            "elSymbol": "H",
            "p3d": {
              "x": -1.5586,
              "y": 0.7335,
              "z": 1.3382
            }
          },
          {
            "elSymbol": "H",
            "p3d": {
              "x": 0.9335,
              "y": 0.7221,
              "z": 1.4011
            }
          },
          {
            "elSymbol": "H",
            "p3d": {
              "x": 0.927,
              "y": -1.0102,
              "z": 0.9001
            }
          }
        ],
        "bonds": [
          {
            "atomIds": [
              0,
              1
            ],
            "bo": "SINGLE"
          },
          {
            "atomIds": [
              0,
              2
            ],
            "bo": "SINGLE"
          },
          {
            "atomIds": [
              0,
              3
            ],
            "bo": "SINGLE"
          },
          {
            "atomIds": [
              0,
              4
            ],
            "bo": "SINGLE"
          },
          {
            "atomIds": [
              1,
              5
            ],
            "bo": "SINGLE"
          },
          {
            "atomIds": [
              1,
              6
            ],
            "bo": "SINGLE"
          }
        ]
      },
      "vertexId": 24692,
      "buildingBlockId": 31,
      "buildingBlockType": "FRAGMENT",
      "isRCV": false,
      "properties": {
        "ATTACHMENT_POINTS": "2#SubRS:1:SINGLE:0.2985%0.3840%-0.6258 "
      },
      "uniquefyingPropertyKeys": [],
      "allowedMutationTypes": [
        "DELETE",
        "EXTEND",
        "CHANGEBRANCH",
        "CHANGELINK",
        "ADDLINK",
        "DELETELINK",
        "DELETECHAIN"
      ],
      "vertexType": "MolecularFragment"
    }
  ],
  "gEdges": [
    {
      "srcAPID": 34609,
      "trgAPID": 34612,
      "bondType": "SINGLE"
    },
    {
      "srcAPID": 34611,
      "trgAPID": 34616,
      "bondType": "SINGLE"
    },
    {
      "srcAPID": 34610,
      "trgAPID": 34617,
      "bondType": "SINGLE"
    },
    {
      "srcAPID": 34614,
      "trgAPID": 34654,
      "bondType": "SINGLE"
    },
    {
      "srcAPID": 34613,
      "trgAPID": 34655,
      "bondType": "SINGLE"
    },
    {
      "srcAPID": 34615,
      "trgAPID": 34656,
      "bondType": "SINGLE"
    }
  ],
  "gRings": [],
  "symVertices": [
    {
      "symIds": [
        25242,
        24688
      ]
    }
  ]
}

> <SMILES>
[Pt](C#O)(SC([H])([H])[H])([P]1(C(=C2C(C(C(C(C2=C1[H])([H])[H])([H])[H])([H])[H])([H])[H])[H])C(C([H])([H])[H])([H])[H])Cl

$$$$
