M00004698
  CDK     04222210233D

 42 45  0  0  0  0  0  0  0  0999 V2000
   -2.6460   -0.5261    0.2692 Pt  0  0  0  0  0  0  0  0  0  0  0  0
   -4.5636   -0.7317    0.3301 C   0  0  0  0  0  0  0  0  0  0  0  0
   -5.7010   -0.8558    0.3582 O   0  0  0  0  0  0  0  0  0  0  0  0
   -2.3215    0.9996   -1.0747 O   0  0  0  0  0  0  0  0  0  0  0  0
   -3.4660    1.7448   -1.4118 C   0  0  0  0  0  0  0  0  0  0  0  0
   -3.1362    2.5082   -2.1305 H   0  0  0  0  0  0  0  0  0  0  0  0
   -3.8701    2.2250   -0.5118 H   0  0  0  0  0  0  0  0  0  0  0  0
   -4.2100    1.0891   -1.8804 H   0  0  0  0  0  0  0  0  0  0  0  0
   -0.3849   -0.2599    0.1182 P   0  0  0  0  0  0  0  0  0  0  0  0
    0.2934    1.4510    0.3408 C   0  0  0  0  0  0  0  0  0  0  0  0
   -0.0250    2.6067   -0.3449 C   0  0  0  0  0  0  0  0  0  0  0  0
    0.6572    3.7875    0.0049 C   0  0  0  0  0  0  0  0  0  0  0  0
    1.6185    3.7755    1.0153 C   0  0  0  0  0  0  0  0  0  0  0  0
    1.9283    2.5924    1.7076 C   0  0  0  0  0  0  0  0  0  0  0  0
    1.2620    1.4147    1.3705 C   0  0  0  0  0  0  0  0  0  0  0  0
    1.4660    0.0899    2.0008 C   0  0  0  0  0  0  0  0  0  0  0  0
    2.3499   -0.1870    3.0436 C   0  0  0  0  0  0  0  0  0  0  0  0
    2.4235   -1.4959    3.5478 C   0  0  0  0  0  0  0  0  0  0  0  0
    1.6277   -2.5135    3.0215 C   0  0  0  0  0  0  0  0  0  0  0  0
    0.7324   -2.2479    1.9686 C   0  0  0  0  0  0  0  0  0  0  0  0
    0.6727   -0.9575    1.4770 C   0  0  0  0  0  0  0  0  0  0  0  0
   -0.7928    2.6133   -1.1285 H   0  0  0  0  0  0  0  0  0  0  0  0
    0.4273    4.7144   -0.5185 H   0  0  0  0  0  0  0  0  0  0  0  0
    2.1398    4.6970    1.2777 H   0  0  0  0  0  0  0  0  0  0  0  0
    2.6780    2.6039    2.4958 H   0  0  0  0  0  0  0  0  0  0  0  0
    2.9728    0.5964    3.4703 H   0  0  0  0  0  0  0  0  0  0  0  0
    3.1103   -1.7143    4.3668 H   0  0  0  0  0  0  0  0  0  0  0  0
    1.6849   -3.5216    3.4326 H   0  0  0  0  0  0  0  0  0  0  0  0
    0.1029   -3.0542    1.5808 H   0  0  0  0  0  0  0  0  0  0  0  0
    0.2248   -0.9364   -1.4900 C   0  0  0  0  0  0  0  0  0  0  0  0
    1.1054   -1.9096   -3.9397 C   0  0  0  0  0  0  0  0  0  0  0  0
    1.4328   -1.6346   -1.5525 C   0  0  0  0  0  0  0  0  0  0  0  0
   -0.5488   -0.7136   -2.6303 C   0  0  0  0  0  0  0  0  0  0  0  0
   -0.0996   -1.2055   -3.8623 C   0  0  0  0  0  0  0  0  0  0  0  0
    1.8706   -2.1246   -2.7876 C   0  0  0  0  0  0  0  0  0  0  0  0
    2.0477   -1.8116   -0.6667 H   0  0  0  0  0  0  0  0  0  0  0  0
   -1.4981   -0.1532   -2.5854 H   0  0  0  0  0  0  0  0  0  0  0  0
   -0.6929   -1.0383   -4.7601 H   0  0  0  0  0  0  0  0  0  0  0  0
    2.8087   -2.6734   -2.8523 H   0  0  0  0  0  0  0  0  0  0  0  0
    1.4511   -2.2930   -4.8998 H   0  0  0  0  0  0  0  0  0  0  0  0
   -2.5986   -2.0309    1.5464 C   0  0  0  0  0  0  0  0  0  0  0  0
   -2.5338   -2.9192    2.2833 N   0  0  0  0  0  0  0  0  0  0  0  0
  2  3  3  0  0  0  0
  1  2  1  0  0  0  0
  5  6  1  0  0  0  0
  5  7  1  0  0  0  0
  5  8  1  0  0  0  0
  4  5  1  0  0  0  0
  1  4  1  0  0  0  0
  9 10  1  0  0  0  0
 10 11  2  0  0  0  0
 11 12  1  0  0  0  0
 12 13  2  0  0  0  0
 13 14  1  0  0  0  0
 14 15  2  0  0  0  0
 15 10  1  0  0  0  0
 16 15  1  0  0  0  0
 16 21  1  0  0  0  0
 17 16  2  0  0  0  0
 18 17  1  0  0  0  0
 19 18  2  0  0  0  0
 20 19  1  0  0  0  0
 20 21  2  0  0  0  0
 21  9  1  0  0  0  0
 22 11  1  0  0  0  0
 23 12  1  0  0  0  0
 24 13  1  0  0  0  0
 25 14  1  0  0  0  0
 26 17  1  0  0  0  0
 27 18  1  0  0  0  0
 28 19  1  0  0  0  0
 29 20  1  0  0  0  0
  1  9  1  0  0  0  0
 30 33  1  0  0  0  0
 33 34  2  0  0  0  0
 31 34  1  0  0  0  0
 31 35  2  0  0  0  0
 32 35  1  0  0  0  0
 30 32  2  0  0  0  0
 34 38  1  0  0  0  0
 35 39  1  0  0  0  0
 31 40  1  0  0  0  0
 32 36  1  0  0  0  0
 33 37  1  0  0  0  0
  9 30  1  0  0  0  0
 41 42  3  0  0  0  0
  1 41  1  0  0  0  0
M  END
> <PM6_ENERGY>
208.424

> <UID>
LBVBPSFUAQGESL-USSCJJMSNA-N

> <FITNESS>
1.1445

> <GCODE>
5466

> <GraphENC>
5466 72_1_0,80_65_1,117_57_1,87_66_1,107915_36_1, 72_0_80_0_SINGLE_Xlig:0_Xlig:1,72_2_117_1_SINGLE_scaff:0_MPhosphole:1,72_1_87_0_SINGLE_Xlig:0_Xlig:1,117_0_107915_0_SINGLE_LPhospholeSubR:0_SubArS:1, 

> <GraphJson>
{
  "graphId": 5466,
  "gVertices": [
    {
      "lstAPs": [
        {
          "id": 141821,
          "atomPositionNumber": 0,
          "atomPositionNumberInMol": 0,
          "apClass": {
            "rule": "Xlig",
            "subClass": 0,
            "bndTyp": "SINGLE"
          },
          "dirVec": {
            "x": -2.3339,
            "y": -0.0087,
            "z": 0.8172
          }
        },
        {
          "id": 141822,
          "atomPositionNumber": 0,
          "atomPositionNumberInMol": 0,
          "apClass": {
            "rule": "Xlig",
            "subClass": 0,
            "bndTyp": "SINGLE"
          },
          "dirVec": {
            "x": 2.336,
            "y": -5.0E-4,
            "z": 0.829
          }
        },
        {
          "id": 141823,
          "atomPositionNumber": 0,
          "atomPositionNumberInMol": 0,
          "apClass": {
            "rule": "scaff",
            "subClass": 0,
            "bndTyp": "SINGLE"
          },
          "dirVec": {
            "x": -0.0095,
            "y": 0.0046,
            "z": -1.7113
          }
        }
      ],
      "lstSymAPs": [
        {
          "symIds": [
            0,
            1
          ]
        }
      ],
      "mol": {
        "atoms": [
          {
            "elSymbol": "Pt",
            "p3d": {
              "x": -0.0098,
              "y": 0.0049,
              "z": 0.6289
            }
          },
          {
            "elSymbol": "C",
            "p3d": {
              "x": -6.0E-4,
              "y": 0.0016,
              "z": 2.5609
            }
          },
          {
            "elSymbol": "O",
            "p3d": {
              "x": 0.0025,
              "y": -0.0041,
              "z": 3.6974
            }
          },
          {
            "elSymbol": "Du",
            "p3d": {
              "x": -0.007,
              "y": 1.0013,
              "z": 0.6372
            }
          },
          {
            "elSymbol": "Du",
            "p3d": {
              "x": -0.0014,
              "y": 0.9902,
              "z": 2.5698
            }
          }
        ],
        "bonds": [
          {
            "atomIds": [
              1,
              2
            ],
            "bo": "TRIPLE"
          },
          {
            "atomIds": [
              0,
              1
            ],
            "bo": "SINGLE"
          },
          {
            "atomIds": [
              3,
              0
            ],
            "bo": "SINGLE"
          },
          {
            "atomIds": [
              4,
              1
            ],
            "bo": "SINGLE"
          }
        ]
      },
      "vertexId": 72,
      "buildingBlockId": 0,
      "buildingBlockType": "SCAFFOLD",
      "isRCV": false,
      "properties": {
        "ATTACHMENT_POINTS": "1#Xlig:0:SINGLE:-2.3339%-0.0087%0.8172,Xlig:0:SINGLE:2.3360%-0.0005%0.8290,scaff:0:SINGLE:-0.0095%0.0046%-1.7113 "
      },
      "uniquefyingPropertyKeys": [],
      "allowedMutationTypes": [
        "DELETE",
        "EXTEND",
        "CHANGEBRANCH",
        "CHANGELINK",
        "ADDLINK",
        "DELETELINK",
        "DELETECHAIN"
      ],
      "vertexType": "MolecularFragment"
    },
    {
      "lstAPs": [
        {
          "id": 141824,
          "atomPositionNumber": 0,
          "atomPositionNumberInMol": 5,
          "apClass": {
            "rule": "Xlig",
            "subClass": 1,
            "bndTyp": "SINGLE"
          },
          "dirVec": {
            "x": -0.1753,
            "y": 0.0948,
            "z": -0.4464
          }
        }
      ],
      "lstSymAPs": [],
      "mol": {
        "atoms": [
          {
            "elSymbol": "O",
            "p3d": {
              "x": -0.3534,
              "y": 2.1044,
              "z": -0.7339
            }
          },
          {
            "elSymbol": "C",
            "p3d": {
              "x": -0.5345,
              "y": 2.7646,
              "z": 0.4801
            }
          },
          {
            "elSymbol": "H",
            "p3d": {
              "x": -0.3728,
              "y": 3.8337,
              "z": 0.2724
            }
          },
          {
            "elSymbol": "H",
            "p3d": {
              "x": 0.1816,
              "y": 2.4161,
              "z": 1.2384
            }
          },
          {
            "elSymbol": "H",
            "p3d": {
              "x": -1.553,
              "y": 2.6149,
              "z": 0.8489
            }
          }
        ],
        "bonds": [
          {
            "atomIds": [
              1,
              2
            ],
            "bo": "SINGLE"
          },
          {
            "atomIds": [
              1,
              3
            ],
            "bo": "SINGLE"
          },
          {
            "atomIds": [
              1,
              4
            ],
            "bo": "SINGLE"
          },
          {
            "atomIds": [
              0,
              1
            ],
            "bo": "SINGLE"
          }
        ]
      },
      "vertexId": 80,
      "buildingBlockId": 64,
      "buildingBlockType": "FRAGMENT",
      "isRCV": false,
      "properties": {
        "ATTACHMENT_POINTS": "1#Xlig:1:SINGLE:-0.1753%0.0948%-0.4464 "
      },
      "uniquefyingPropertyKeys": [],
      "allowedMutationTypes": [
        "DELETE",
        "EXTEND",
        "CHANGEBRANCH",
        "CHANGELINK",
        "ADDLINK",
        "DELETELINK",
        "DELETECHAIN"
      ],
      "vertexType": "MolecularFragment"
    },
    {
      "lstAPs": [
        {
          "id": 141825,
          "atomPositionNumber": 0,
          "atomPositionNumberInMol": 10,
          "apClass": {
            "rule": "LPhospholeSubR",
            "subClass": 0,
            "bndTyp": "SINGLE"
          },
          "dirVec": {
            "x": 8.2979,
            "y": 3.6599,
            "z": 9.907
          }
        },
        {
          "id": 141826,
          "atomPositionNumber": 0,
          "atomPositionNumberInMol": 10,
          "apClass": {
            "rule": "MPhosphole",
            "subClass": 1,
            "bndTyp": "SINGLE"
          },
          "dirVec": {
            "x": 8.1114,
            "y": 1.563,
            "z": 6.7555
          }
        }
      ],
      "lstSymAPs": [],
      "mol": {
        "atoms": [
          {
            "elSymbol": "P",
            "p3d": {
              "x": 7.3852,
              "y": 3.3353,
              "z": 8.349
            }
          },
          {
            "elSymbol": "C",
            "p3d": {
              "x": 7.2878,
              "y": 5.0039,
              "z": 7.6394
            }
          },
          {
            "elSymbol": "C",
            "p3d": {
              "x": 8.2867,
              "y": 5.7253,
              "z": 7.0209
            }
          },
          {
            "elSymbol": "C",
            "p3d": {
              "x": 7.9761,
              "y": 6.9837,
              "z": 6.5025
            }
          },
          {
            "elSymbol": "C",
            "p3d": {
              "x": 6.7261,
              "y": 7.4825,
              "z": 6.6338
            }
          },
          {
            "elSymbol": "C",
            "p3d": {
              "x": 5.742,
              "y": 6.7839,
              "z": 7.2506
            }
          },
          {
            "elSymbol": "C",
            "p3d": {
              "x": 6.0001,
              "y": 5.545,
              "z": 7.7891
            }
          },
          {
            "elSymbol": "C",
            "p3d": {
              "x": 5.0707,
              "y": 4.6709,
              "z": 8.5094
            }
          },
          {
            "elSymbol": "C",
            "p3d": {
              "x": 3.7379,
              "y": 4.9022,
              "z": 8.8416
            }
          },
          {
            "elSymbol": "C",
            "p3d": {
              "x": 3.0581,
              "y": 3.9613,
              "z": 9.5076
            }
          },
          {
            "elSymbol": "C",
            "p3d": {
              "x": 3.592,
              "y": 2.7603,
              "z": 9.8266
            }
          },
          {
            "elSymbol": "C",
            "p3d": {
              "x": 4.9369,
              "y": 2.494,
              "z": 9.5465
            }
          },
          {
            "elSymbol": "C",
            "p3d": {
              "x": 5.6287,
              "y": 3.4387,
              "z": 8.8671
            }
          },
          {
            "elSymbol": "H",
            "p3d": {
              "x": 9.3019,
              "y": 5.3077,
              "z": 6.9257
            }
          },
          {
            "elSymbol": "H",
            "p3d": {
              "x": 8.7469,
              "y": 7.56,
              "z": 6.0141
            }
          },
          {
            "elSymbol": "H",
            "p3d": {
              "x": 6.5026,
              "y": 8.4647,
              "z": 6.2206
            }
          },
          {
            "elSymbol": "H",
            "p3d": {
              "x": 4.7435,
              "y": 7.2295,
              "z": 7.3444
            }
          },
          {
            "elSymbol": "H",
            "p3d": {
              "x": 3.2597,
              "y": 5.842,
              "z": 8.5703
            }
          },
          {
            "elSymbol": "H",
            "p3d": {
              "x": 2.0248,
              "y": 4.1573,
              "z": 9.8149
            }
          },
          {
            "elSymbol": "H",
            "p3d": {
              "x": 2.9835,
              "y": 2.0,
              "z": 10.2956
            }
          },
          {
            "elSymbol": "H",
            "p3d": {
              "x": 5.394,
              "y": 1.5535,
              "z": 9.8429
            }
          }
        ],
        "bonds": [
          {
            "atomIds": [
              0,
              1
            ],
            "bo": "SINGLE"
          },
          {
            "atomIds": [
              1,
              2
            ],
            "bo": "DOUBLE"
          },
          {
            "atomIds": [
              2,
              3
            ],
            "bo": "SINGLE"
          },
          {
            "atomIds": [
              3,
              4
            ],
            "bo": "DOUBLE"
          },
          {
            "atomIds": [
              4,
              5
            ],
            "bo": "SINGLE"
          },
          {
            "atomIds": [
              5,
              6
            ],
            "bo": "DOUBLE"
          },
          {
            "atomIds": [
              6,
              1
            ],
            "bo": "SINGLE"
          },
          {
            "atomIds": [
              7,
              6
            ],
            "bo": "SINGLE"
          },
          {
            "atomIds": [
              7,
              12
            ],
            "bo": "SINGLE"
          },
          {
            "atomIds": [
              8,
              7
            ],
            "bo": "DOUBLE"
          },
          {
            "atomIds": [
              9,
              8
            ],
            "bo": "SINGLE"
          },
          {
            "atomIds": [
              10,
              9
            ],
            "bo": "DOUBLE"
          },
          {
            "atomIds": [
              11,
              10
            ],
            "bo": "SINGLE"
          },
          {
            "atomIds": [
              11,
              12
            ],
            "bo": "DOUBLE"
          },
          {
            "atomIds": [
              12,
              0
            ],
            "bo": "SINGLE"
          },
          {
            "atomIds": [
              13,
              2
            ],
            "bo": "SINGLE"
          },
          {
            "atomIds": [
              14,
              3
            ],
            "bo": "SINGLE"
          },
          {
            "atomIds": [
              15,
              4
            ],
            "bo": "SINGLE"
          },
          {
            "atomIds": [
              16,
              5
            ],
            "bo": "SINGLE"
          },
          {
            "atomIds": [
              17,
              8
            ],
            "bo": "SINGLE"
          },
          {
            "atomIds": [
              18,
              9
            ],
            "bo": "SINGLE"
          },
          {
            "atomIds": [
              19,
              10
            ],
            "bo": "SINGLE"
          },
          {
            "atomIds": [
              20,
              11
            ],
            "bo": "SINGLE"
          }
        ]
      },
      "vertexId": 117,
      "buildingBlockId": 56,
      "buildingBlockType": "FRAGMENT",
      "isRCV": false,
      "properties": {
        "ATTACHMENT_POINTS": "1#LPhospholeSubR:0:SINGLE:8.2979%3.6599%9.9070,MPhosphole:1:SINGLE:8.1114%1.5630%6.7555 "
      },
      "uniquefyingPropertyKeys": [],
      "allowedMutationTypes": [
        "DELETE",
        "EXTEND",
        "CHANGEBRANCH",
        "CHANGELINK",
        "ADDLINK",
        "DELETELINK",
        "DELETECHAIN"
      ],
      "vertexType": "MolecularFragment"
    },
    {
      "lstAPs": [
        {
          "id": 141827,
          "atomPositionNumber": 0,
          "atomPositionNumberInMol": 42,
          "apClass": {
            "rule": "Xlig",
            "subClass": 1,
            "bndTyp": "SINGLE"
          },
          "dirVec": {
            "x": 0.0192,
            "y": -0.0048,
            "z": -0.5645
          }
        }
      ],
      "lstSymAPs": [],
      "mol": {
        "atoms": [
          {
            "elSymbol": "C",
            "p3d": {
              "x": -1.967,
              "y": -0.0075,
              "z": -0.4937
            }
          },
          {
            "elSymbol": "N",
            "p3d": {
              "x": -3.1263,
              "y": -0.0054,
              "z": -0.4354
            }
          },
          {
            "elSymbol": "Du",
            "p3d": {
              "x": -1.9744,
              "y": 0.9926,
              "z": -0.5036
            }
          }
        ],
        "bonds": [
          {
            "atomIds": [
              0,
              1
            ],
            "bo": "TRIPLE"
          },
          {
            "atomIds": [
              2,
              0
            ],
            "bo": "SINGLE"
          }
        ]
      },
      "vertexId": 87,
      "buildingBlockId": 65,
      "buildingBlockType": "FRAGMENT",
      "isRCV": false,
      "properties": {
        "ATTACHMENT_POINTS": "1#Xlig:1:SINGLE:0.0192%-0.0048%-0.5645 "
      },
      "uniquefyingPropertyKeys": [],
      "allowedMutationTypes": [
        "DELETE",
        "EXTEND",
        "CHANGEBRANCH",
        "CHANGELINK",
        "ADDLINK",
        "DELETELINK",
        "DELETECHAIN"
      ],
      "vertexType": "MolecularFragment"
    },
    {
      "lstAPs": [
        {
          "id": 141852,
          "atomPositionNumber": 0,
          "atomPositionNumberInMol": 31,
          "apClass": {
            "rule": "SubArS",
            "subClass": 1,
            "bndTyp": "SINGLE"
          },
          "dirVec": {
            "x": 0.2973,
            "y": 0.3873,
            "z": -0.6389
          }
        }
      ],
      "lstSymAPs": [],
      "mol": {
        "atoms": [
          {
            "elSymbol": "C",
            "p3d": {
              "x": 1.6995,
              "y": 0.5593,
              "z": -1.2083
            }
          },
          {
            "elSymbol": "C",
            "p3d": {
              "x": 4.2563,
              "y": 0.8754,
              "z": -2.2592
            }
          },
          {
            "elSymbol": "C",
            "p3d": {
              "x": 2.3334,
              "y": 1.79,
              "z": -1.1338
            }
          },
          {
            "elSymbol": "C",
            "p3d": {
              "x": 2.3422,
              "y": -0.5107,
              "z": -1.8125
            }
          },
          {
            "elSymbol": "C",
            "p3d": {
              "x": 3.612,
              "y": -0.3527,
              "z": -2.3321
            }
          },
          {
            "elSymbol": "C",
            "p3d": {
              "x": 3.6062,
              "y": 1.9513,
              "z": -1.6526
            }
          },
          {
            "elSymbol": "H",
            "p3d": {
              "x": 1.833,
              "y": 2.6461,
              "z": -0.6488
            }
          },
          {
            "elSymbol": "H",
            "p3d": {
              "x": 1.8361,
              "y": -1.4773,
              "z": -1.887
            }
          },
          {
            "elSymbol": "H",
            "p3d": {
              "x": 4.115,
              "y": -1.2043,
              "z": -2.8152
            }
          },
          {
            "elSymbol": "H",
            "p3d": {
              "x": 4.1097,
              "y": 2.9214,
              "z": -1.5842
            }
          },
          {
            "elSymbol": "H",
            "p3d": {
              "x": 5.2498,
              "y": 0.9926,
              "z": -2.665
            }
          }
        ],
        "bonds": [
          {
            "atomIds": [
              0,
              3
            ],
            "bo": "SINGLE"
          },
          {
            "atomIds": [
              3,
              4
            ],
            "bo": "DOUBLE"
          },
          {
            "atomIds": [
              1,
              4
            ],
            "bo": "SINGLE"
          },
          {
            "atomIds": [
              1,
              5
            ],
            "bo": "DOUBLE"
          },
          {
            "atomIds": [
              2,
              5
            ],
            "bo": "SINGLE"
          },
          {
            "atomIds": [
              0,
              2
            ],
            "bo": "DOUBLE"
          },
          {
            "atomIds": [
              4,
              8
            ],
            "bo": "SINGLE"
          },
          {
            "atomIds": [
              5,
              9
            ],
            "bo": "SINGLE"
          },
          {
            "atomIds": [
              1,
              10
            ],
            "bo": "SINGLE"
          },
          {
            "atomIds": [
              2,
              6
            ],
            "bo": "SINGLE"
          },
          {
            "atomIds": [
              3,
              7
            ],
            "bo": "SINGLE"
          }
        ]
      },
      "vertexId": 107915,
      "buildingBlockId": 35,
      "buildingBlockType": "FRAGMENT",
      "isRCV": false,
      "properties": {
        "ATTACHMENT_POINTS": "1#SubArS:1:SINGLE:0.2973%0.3873%-0.6389 "
      },
      "uniquefyingPropertyKeys": [],
      "allowedMutationTypes": [
        "DELETE",
        "EXTEND",
        "CHANGEBRANCH",
        "CHANGELINK",
        "ADDLINK",
        "DELETELINK",
        "DELETECHAIN"
      ],
      "vertexType": "MolecularFragment"
    }
  ],
  "gEdges": [
    {
      "srcAPID": 141821,
      "trgAPID": 141824,
      "bondType": "SINGLE"
    },
    {
      "srcAPID": 141823,
      "trgAPID": 141826,
      "bondType": "SINGLE"
    },
    {
      "srcAPID": 141822,
      "trgAPID": 141827,
      "bondType": "SINGLE"
    },
    {
      "srcAPID": 141825,
      "trgAPID": 141852,
      "bondType": "SINGLE"
    }
  ],
  "gRings": [],
  "symVertices": []
}

> <SMILES>
[Pt](C#O)(OC([H])([H])[H])([P]1(C2=C(C(=C(C(=C2C=3C1=C(C(=C(C3[H])[H])[H])[H])[H])[H])[H])[H])C=4C(=C(C(=C(C4[H])[H])[H])[H])[H])C#N

$$$$
