M00006509
  CDK     04222211033D

 45 45  0  0  0  0  0  0  0  0999 V2000
    2.4692    0.2250    0.0093 Pt  0  0  0  0  0  0  0  0  0  0  0  0
    4.3510    0.5849    0.0888 C   0  0  0  0  0  0  0  0  0  0  0  0
    5.4707    0.8239    0.1218 O   0  0  0  0  0  0  0  0  0  0  0  0
    2.7347   -1.7599   -0.0669 C   0  0  0  0  0  0  0  0  0  0  0  0
    2.8614   -2.9076   -0.1162 N   0  0  0  0  0  0  0  0  0  0  0  0
   -0.1651   -0.4976   -1.2508 N   0  0  0  0  0  0  0  0  0  0  0  0
   -0.4210    0.0526    0.9026 N   0  0  0  0  0  0  0  0  0  0  0  0
    0.4734   -0.0891   -0.1157 C   0  0  0  0  0  0  0  0  0  0  0  0
   -1.6677   -0.5964   -1.0777 C   0  0  0  0  0  0  0  0  0  0  0  0
   -1.8405   -0.2881    0.4927 C   0  0  0  0  0  0  0  0  0  0  0  0
   -2.3045   -1.5035    1.2985 C   0  0  0  0  0  0  0  0  0  0  0  0
   -3.3140   -1.8183    1.0108 H   0  0  0  0  0  0  0  0  0  0  0  0
   -1.6336   -2.3647    1.1714 H   0  0  0  0  0  0  0  0  0  0  0  0
   -2.3312   -1.2894    2.3748 H   0  0  0  0  0  0  0  0  0  0  0  0
    1.3772    0.3842   -2.9980 C   0  0  0  0  0  0  0  0  0  0  0  0
    0.5516   -0.8042   -2.5159 C   0  0  0  0  0  0  0  0  0  0  0  0
    2.2553    0.5732   -2.3505 H   0  0  0  0  0  0  0  0  0  0  0  0
    1.7603    0.2101   -4.0113 H   0  0  0  0  0  0  0  0  0  0  0  0
    0.7949    1.3157   -3.0206 H   0  0  0  0  0  0  0  0  0  0  0  0
   -0.1949   -1.1011   -3.2852 H   0  0  0  0  0  0  0  0  0  0  0  0
    1.2132   -1.6900   -2.3369 H   0  0  0  0  0  0  0  0  0  0  0  0
   -2.7532    0.9044    0.7778 C   0  0  0  0  0  0  0  0  0  0  0  0
   -2.8662    1.0825    1.8548 H   0  0  0  0  0  0  0  0  0  0  0  0
   -2.3635    1.8376    0.3466 H   0  0  0  0  0  0  0  0  0  0  0  0
   -3.7604    0.7442    0.3756 H   0  0  0  0  0  0  0  0  0  0  0  0
    1.0282   -0.4401    2.8593 C   0  0  0  0  0  0  0  0  0  0  0  0
   -0.0285    0.4882    2.2665 C   0  0  0  0  0  0  0  0  0  0  0  0
    0.6986   -1.4880    2.8723 H   0  0  0  0  0  0  0  0  0  0  0  0
    1.9749   -0.4155    2.2861 H   0  0  0  0  0  0  0  0  0  0  0  0
    1.2654   -0.1570    3.8919 H   0  0  0  0  0  0  0  0  0  0  0  0
   -0.9350    0.5122    2.9102 H   0  0  0  0  0  0  0  0  0  0  0  0
    0.3602    1.5359    2.2019 H   0  0  0  0  0  0  0  0  0  0  0  0
   -2.3331    0.4497   -1.9748 C   0  0  0  0  0  0  0  0  0  0  0  0
   -3.4225    0.4501   -1.8582 H   0  0  0  0  0  0  0  0  0  0  0  0
   -1.9692    1.4654   -1.7648 H   0  0  0  0  0  0  0  0  0  0  0  0
   -2.1246    0.2620   -3.0363 H   0  0  0  0  0  0  0  0  0  0  0  0
   -2.1373   -1.9958   -1.4740 C   0  0  0  0  0  0  0  0  0  0  0  0
   -2.0224   -2.1742   -2.5511 H   0  0  0  0  0  0  0  0  0  0  0  0
   -1.5673   -2.7864   -0.9656 H   0  0  0  0  0  0  0  0  0  0  0  0
   -3.1980   -2.1447   -1.2405 H   0  0  0  0  0  0  0  0  0  0  0  0
    2.1318    2.5273    0.0544 S   0  0  0  0  0  0  0  0  0  0  0  0
    2.7949    2.9000    1.7042 C   0  0  0  0  0  0  0  0  0  0  0  0
    3.8235    3.2677    1.6229 H   0  0  0  0  0  0  0  0  0  0  0  0
    2.7751    2.0230    2.3570 H   0  0  0  0  0  0  0  0  0  0  0  0
    2.1882    3.6916    2.1589 H   0  0  0  0  0  0  0  0  0  0  0  0
  2  3  3  0  0  0  0
  1  2  1  0  0  0  0
  4  5  3  0  0  0  0
  1  4  1  0  0  0  0
  6  8  1  0  0  0  0
  7  8  1  0  0  0  0
  9  6  1  0  0  0  0
  9 10  1  0  0  0  0
 10  7  1  0  0  0  0
  1  8  1  0  0  0  0
 11 12  1  0  0  0  0
 11 13  1  0  0  0  0
 11 14  1  0  0  0  0
 10 11  1  0  0  0  0
 15 16  1  0  0  0  0
 15 17  1  0  0  0  0
 15 18  1  0  0  0  0
 15 19  1  0  0  0  0
 16 20  1  0  0  0  0
 16 21  1  0  0  0  0
  6 16  1  0  0  0  0
 22 23  1  0  0  0  0
 22 24  1  0  0  0  0
 22 25  1  0  0  0  0
 10 22  1  0  0  0  0
 26 27  1  0  0  0  0
 26 28  1  0  0  0  0
 26 29  1  0  0  0  0
 26 30  1  0  0  0  0
 27 31  1  0  0  0  0
 27 32  1  0  0  0  0
  7 27  1  0  0  0  0
 33 34  1  0  0  0  0
 33 35  1  0  0  0  0
 33 36  1  0  0  0  0
  9 33  1  0  0  0  0
 37 38  1  0  0  0  0
 37 39  1  0  0  0  0
 37 40  1  0  0  0  0
  9 37  1  0  0  0  0
 42 43  1  0  0  0  0
 42 44  1  0  0  0  0
 42 45  1  0  0  0  0
 41 42  1  0  0  0  0
  1 41  1  0  0  0  0
M  END
> <PM6_ENERGY>
-72.011

> <UID>
HYKZQMVHYIGMMJ-JWFDWBGCNA-M

> <FITNESS>
1.1454

> <GCODE>
7340

> <GraphENC>
7340 72_1_0,81_66_1,96_18_1,85_64_1,148075_31_1,147985_32_1,148076_31_1,148073_32_1,148074_31_1,147996_31_1, 72_0_81_0_SINGLE_Xlig:0_Xlig:1,72_2_96_2_SINGLE_scaff:0_MImidazolidinylidene:1,72_1_85_0_SINGLE_Xlig:0_Xlig:1,96_5_148075_0_SINGLE_LImidazolidinylideneSubCS:0_SubRS:1,96_0_147985_0_SINGLE_LImidazolidinylideneSubNL:0_SubRS:1,96_6_148076_0_SINGLE_LImidazolidinylideneSubCS:0_SubRS:1,96_1_148073_0_SINGLE_LImidazolidinylideneSubNL:0_SubRS:1,96_4_148074_0_SINGLE_LImidazolidinylideneSubCS:0_SubRS:1,96_3_147996_0_SINGLE_LImidazolidinylideneSubCS:0_SubRS:1, SymmetricSet [symIds=[147985, 148073]] SymmetricSet [symIds=[148075, 148076, 148074, 147996]] 

> <GraphJson>
{
  "graphId": 7340,
  "gVertices": [
    {
      "lstAPs": [
        {
          "id": 193778,
          "atomPositionNumber": 0,
          "atomPositionNumberInMol": 0,
          "apClass": {
            "rule": "Xlig",
            "subClass": 0,
            "bndTyp": "SINGLE"
          },
          "dirVec": {
            "x": -2.3339,
            "y": -0.0087,
            "z": 0.8172
          }
        },
        {
          "id": 193779,
          "atomPositionNumber": 0,
          "atomPositionNumberInMol": 0,
          "apClass": {
            "rule": "Xlig",
            "subClass": 0,
            "bndTyp": "SINGLE"
          },
          "dirVec": {
            "x": 2.336,
            "y": -5.0E-4,
            "z": 0.829
          }
        },
        {
          "id": 193780,
          "atomPositionNumber": 0,
          "atomPositionNumberInMol": 0,
          "apClass": {
            "rule": "scaff",
            "subClass": 0,
            "bndTyp": "SINGLE"
          },
          "dirVec": {
            "x": -0.0095,
            "y": 0.0046,
            "z": -1.7113
          }
        }
      ],
      "lstSymAPs": [
        {
          "symIds": [
            0,
            1
          ]
        }
      ],
      "mol": {
        "atoms": [
          {
            "elSymbol": "Pt",
            "p3d": {
              "x": -0.0098,
              "y": 0.0049,
              "z": 0.6289
            }
          },
          {
            "elSymbol": "C",
            "p3d": {
              "x": -6.0E-4,
              "y": 0.0016,
              "z": 2.5609
            }
          },
          {
            "elSymbol": "O",
            "p3d": {
              "x": 0.0025,
              "y": -0.0041,
              "z": 3.6974
            }
          },
          {
            "elSymbol": "Du",
            "p3d": {
              "x": -0.007,
              "y": 1.0013,
              "z": 0.6372
            }
          },
          {
            "elSymbol": "Du",
            "p3d": {
              "x": -0.0014,
              "y": 0.9902,
              "z": 2.5698
            }
          }
        ],
        "bonds": [
          {
            "atomIds": [
              1,
              2
            ],
            "bo": "TRIPLE"
          },
          {
            "atomIds": [
              0,
              1
            ],
            "bo": "SINGLE"
          },
          {
            "atomIds": [
              3,
              0
            ],
            "bo": "SINGLE"
          },
          {
            "atomIds": [
              4,
              1
            ],
            "bo": "SINGLE"
          }
        ]
      },
      "vertexId": 72,
      "buildingBlockId": 0,
      "buildingBlockType": "SCAFFOLD",
      "isRCV": false,
      "properties": {
        "ATTACHMENT_POINTS": "1#Xlig:0:SINGLE:-2.3339%-0.0087%0.8172,Xlig:0:SINGLE:2.3360%-0.0005%0.8290,scaff:0:SINGLE:-0.0095%0.0046%-1.7113 "
      },
      "uniquefyingPropertyKeys": [],
      "allowedMutationTypes": [
        "DELETE",
        "EXTEND",
        "CHANGEBRANCH",
        "CHANGELINK",
        "ADDLINK",
        "DELETELINK",
        "DELETECHAIN"
      ],
      "vertexType": "MolecularFragment"
    },
    {
      "lstAPs": [
        {
          "id": 193781,
          "atomPositionNumber": 0,
          "atomPositionNumberInMol": 5,
          "apClass": {
            "rule": "Xlig",
            "subClass": 1,
            "bndTyp": "SINGLE"
          },
          "dirVec": {
            "x": 0.0192,
            "y": -0.0048,
            "z": -0.5645
          }
        }
      ],
      "lstSymAPs": [],
      "mol": {
        "atoms": [
          {
            "elSymbol": "C",
            "p3d": {
              "x": -1.967,
              "y": -0.0075,
              "z": -0.4937
            }
          },
          {
            "elSymbol": "N",
            "p3d": {
              "x": -3.1263,
              "y": -0.0054,
              "z": -0.4354
            }
          },
          {
            "elSymbol": "Du",
            "p3d": {
              "x": -1.9744,
              "y": 0.9926,
              "z": -0.5036
            }
          }
        ],
        "bonds": [
          {
            "atomIds": [
              0,
              1
            ],
            "bo": "TRIPLE"
          },
          {
            "atomIds": [
              2,
              0
            ],
            "bo": "SINGLE"
          }
        ]
      },
      "vertexId": 81,
      "buildingBlockId": 65,
      "buildingBlockType": "FRAGMENT",
      "isRCV": false,
      "properties": {
        "ATTACHMENT_POINTS": "1#Xlig:1:SINGLE:0.0192%-0.0048%-0.5645 "
      },
      "uniquefyingPropertyKeys": [],
      "allowedMutationTypes": [
        "DELETE",
        "EXTEND",
        "CHANGEBRANCH",
        "CHANGELINK",
        "ADDLINK",
        "DELETELINK",
        "DELETECHAIN"
      ],
      "vertexType": "MolecularFragment"
    },
    {
      "lstAPs": [
        {
          "id": 193782,
          "atomPositionNumber": 0,
          "atomPositionNumberInMol": 8,
          "apClass": {
            "rule": "LImidazolidinylideneSubNL",
            "subClass": 0,
            "bndTyp": "SINGLE"
          },
          "dirVec": {
            "x": 10.7599,
            "y": 7.5084,
            "z": 14.0952
          }
        },
        {
          "id": 193783,
          "atomPositionNumber": 1,
          "atomPositionNumberInMol": 9,
          "apClass": {
            "rule": "LImidazolidinylideneSubNL",
            "subClass": 0,
            "bndTyp": "SINGLE"
          },
          "dirVec": {
            "x": 13.6782,
            "y": 5.3814,
            "z": 10.7894
          }
        },
        {
          "id": 193784,
          "atomPositionNumber": 2,
          "atomPositionNumberInMol": 10,
          "apClass": {
            "rule": "MImidazolidinylidene",
            "subClass": 1,
            "bndTyp": "SINGLE"
          },
          "dirVec": {
            "x": 11.802,
            "y": 8.3887,
            "z": 11.2504
          }
        },
        {
          "id": 193785,
          "atomPositionNumber": 3,
          "atomPositionNumberInMol": 11,
          "apClass": {
            "rule": "LImidazolidinylideneSubCS",
            "subClass": 0,
            "bndTyp": "SINGLE"
          },
          "dirVec": {
            "x": 10.0523,
            "y": 4.6083,
            "z": 13.2132
          }
        },
        {
          "id": 193786,
          "atomPositionNumber": 3,
          "atomPositionNumberInMol": 11,
          "apClass": {
            "rule": "LImidazolidinylideneSubCS",
            "subClass": 0,
            "bndTyp": "SINGLE"
          },
          "dirVec": {
            "x": 11.5095,
            "y": 4.767,
            "z": 15.2436
          }
        },
        {
          "id": 193787,
          "atomPositionNumber": 4,
          "atomPositionNumberInMol": 12,
          "apClass": {
            "rule": "LImidazolidinylideneSubCS",
            "subClass": 0,
            "bndTyp": "SINGLE"
          },
          "dirVec": {
            "x": 12.2856,
            "y": 3.107,
            "z": 12.3051
          }
        },
        {
          "id": 193788,
          "atomPositionNumber": 4,
          "atomPositionNumberInMol": 12,
          "apClass": {
            "rule": "LImidazolidinylideneSubCS",
            "subClass": 0,
            "bndTyp": "SINGLE"
          },
          "dirVec": {
            "x": 13.8972,
            "y": 4.3619,
            "z": 13.7098
          }
        }
      ],
      "lstSymAPs": [
        {
          "symIds": [
            0,
            1
          ]
        },
        {
          "symIds": [
            3,
            4,
            5,
            6
          ]
        }
      ],
      "mol": {
        "atoms": [
          {
            "elSymbol": "N",
            "p3d": {
              "x": 11.5933,
              "y": 6.5332,
              "z": 13.4566
            }
          },
          {
            "elSymbol": "N",
            "p3d": {
              "x": 12.7509,
              "y": 5.5461,
              "z": 11.8789
            }
          },
          {
            "elSymbol": "C",
            "p3d": {
              "x": 12.1672,
              "y": 6.7283,
              "z": 12.2433
            }
          },
          {
            "elSymbol": "C",
            "p3d": {
              "x": 11.4183,
              "y": 5.0594,
              "z": 13.7524
            }
          },
          {
            "elSymbol": "C",
            "p3d": {
              "x": 12.6103,
              "y": 4.4656,
              "z": 12.9143
            }
          }
        ],
        "bonds": [
          {
            "atomIds": [
              0,
              2
            ],
            "bo": "SINGLE"
          },
          {
            "atomIds": [
              1,
              2
            ],
            "bo": "SINGLE"
          },
          {
            "atomIds": [
              3,
              0
            ],
            "bo": "SINGLE"
          },
          {
            "atomIds": [
              3,
              4
            ],
            "bo": "SINGLE"
          },
          {
            "atomIds": [
              4,
              1
            ],
            "bo": "SINGLE"
          }
        ]
      },
      "vertexId": 96,
      "buildingBlockId": 17,
      "buildingBlockType": "FRAGMENT",
      "isRCV": false,
      "properties": {
        "ATTACHMENT_POINTS": "1#LImidazolidinylideneSubNL:0:SINGLE:10.7599%7.5084%14.0952 2#LImidazolidinylideneSubNL:0:SINGLE:13.6782%5.3814%10.7894 3#MImidazolidinylidene:1:SINGLE:11.8020%8.3887%11.2504 4#LImidazolidinylideneSubCS:0:SINGLE:10.0523%4.6083%13.2132,LImidazolidinylideneSubCS:0:SINGLE:11.5095%4.7670%15.2436 5#LImidazolidinylideneSubCS:0:SINGLE:12.2856%3.1070%12.3051,LImidazolidinylideneSubCS:0:SINGLE:13.8972%4.3619%13.7098 "
      },
      "uniquefyingPropertyKeys": [],
      "allowedMutationTypes": [
        "DELETE",
        "EXTEND",
        "CHANGEBRANCH",
        "CHANGELINK",
        "ADDLINK",
        "DELETELINK",
        "DELETECHAIN"
      ],
      "vertexType": "MolecularFragment"
    },
    {
      "lstAPs": [
        {
          "id": 193789,
          "atomPositionNumber": 0,
          "atomPositionNumberInMol": 43,
          "apClass": {
            "rule": "Xlig",
            "subClass": 1,
            "bndTyp": "SINGLE"
          },
          "dirVec": {
            "x": -0.102,
            "y": 0.0185,
            "z": -1.0265
          }
        }
      ],
      "lstSymAPs": [],
      "mol": {
        "atoms": [
          {
            "elSymbol": "S",
            "p3d": {
              "x": -0.3267,
              "y": 2.3403,
              "z": -1.0022
            }
          },
          {
            "elSymbol": "C",
            "p3d": {
              "x": -0.626,
              "y": 2.4866,
              "z": 0.7805
            }
          },
          {
            "elSymbol": "H",
            "p3d": {
              "x": 0.1766,
              "y": 3.089,
              "z": 1.2414
            }
          },
          {
            "elSymbol": "H",
            "p3d": {
              "x": -0.651,
              "y": 1.5065,
              "z": 1.2643
            }
          },
          {
            "elSymbol": "H",
            "p3d": {
              "x": -1.5658,
              "y": 2.981,
              "z": 0.9515
            }
          }
        ],
        "bonds": [
          {
            "atomIds": [
              1,
              2
            ],
            "bo": "SINGLE"
          },
          {
            "atomIds": [
              1,
              3
            ],
            "bo": "SINGLE"
          },
          {
            "atomIds": [
              1,
              4
            ],
            "bo": "SINGLE"
          },
          {
            "atomIds": [
              0,
              1
            ],
            "bo": "SINGLE"
          }
        ]
      },
      "vertexId": 85,
      "buildingBlockId": 63,
      "buildingBlockType": "FRAGMENT",
      "isRCV": false,
      "properties": {
        "ATTACHMENT_POINTS": "1#Xlig:1:SINGLE:-0.1020%0.0185%-1.0265 "
      },
      "uniquefyingPropertyKeys": [],
      "allowedMutationTypes": [
        "DELETE",
        "EXTEND",
        "CHANGEBRANCH",
        "CHANGELINK",
        "ADDLINK",
        "DELETELINK",
        "DELETECHAIN"
      ],
      "vertexType": "MolecularFragment"
    },
    {
      "lstAPs": [
        {
          "id": 193844,
          "atomPositionNumber": 0,
          "atomPositionNumberInMol": 13,
          "apClass": {
            "rule": "SubRS",
            "subClass": 1,
            "bndTyp": "SINGLE"
          },
          "dirVec": {
            "x": 0.2865,
            "y": 0.3959,
            "z": -0.6387
          }
        }
      ],
      "lstSymAPs": [],
      "mol": {
        "atoms": [
          {
            "elSymbol": "C",
            "p3d": {
              "x": 0.3969,
              "y": -0.0496,
              "z": 0.8235
            }
          },
          {
            "elSymbol": "H",
            "p3d": {
              "x": -0.6146,
              "y": -0.163,
              "z": 1.2402
            }
          },
          {
            "elSymbol": "H",
            "p3d": {
              "x": 0.9335,
              "y": -0.9979,
              "z": 0.8998
            }
          },
          {
            "elSymbol": "H",
            "p3d": {
              "x": 0.9252,
              "y": 0.7237,
              "z": 1.3995
            }
          }
        ],
        "bonds": [
          {
            "atomIds": [
              0,
              1
            ],
            "bo": "SINGLE"
          },
          {
            "atomIds": [
              0,
              2
            ],
            "bo": "SINGLE"
          },
          {
            "atomIds": [
              0,
              3
            ],
            "bo": "SINGLE"
          }
        ]
      },
      "vertexId": 148075,
      "buildingBlockId": 30,
      "buildingBlockType": "FRAGMENT",
      "isRCV": false,
      "properties": {
        "ATTACHMENT_POINTS": "1#SubRS:1:SINGLE:0.2865%0.3959%-0.6387 "
      },
      "uniquefyingPropertyKeys": [],
      "allowedMutationTypes": [
        "DELETE",
        "EXTEND",
        "CHANGEBRANCH",
        "CHANGELINK",
        "ADDLINK",
        "DELETELINK",
        "DELETECHAIN"
      ],
      "vertexType": "MolecularFragment"
    },
    {
      "lstAPs": [
        {
          "id": 193845,
          "atomPositionNumber": 1,
          "atomPositionNumberInMol": 18,
          "apClass": {
            "rule": "SubRS",
            "subClass": 1,
            "bndTyp": "SINGLE"
          },
          "dirVec": {
            "x": 0.2985,
            "y": 0.384,
            "z": -0.6258
          }
        }
      ],
      "lstSymAPs": [],
      "mol": {
        "atoms": [
          {
            "elSymbol": "C",
            "p3d": {
              "x": -1.0244,
              "y": -0.2225,
              "z": 1.3991
            }
          },
          {
            "elSymbol": "C",
            "p3d": {
              "x": 0.3973,
              "y": -0.042,
              "z": 0.8195
            }
          },
          {
            "elSymbol": "H",
            "p3d": {
              "x": -1.5635,
              "y": -0.9908,
              "z": 0.8263
            }
          },
          {
            "elSymbol": "H",
            "p3d": {
              "x": -0.941,
              "y": -0.535,
              "z": 2.446
            }
          },
          {
            "elSymbol": "H",
            "p3d": {
              "x": -1.5586,
              "y": 0.7335,
              "z": 1.3382
            }
          },
          {
            "elSymbol": "H",
            "p3d": {
              "x": 0.9335,
              "y": 0.7221,
              "z": 1.4011
            }
          },
          {
            "elSymbol": "H",
            "p3d": {
              "x": 0.927,
              "y": -1.0102,
              "z": 0.9001
            }
          }
        ],
        "bonds": [
          {
            "atomIds": [
              0,
              1
            ],
            "bo": "SINGLE"
          },
          {
            "atomIds": [
              0,
              2
            ],
            "bo": "SINGLE"
          },
          {
            "atomIds": [
              0,
              3
            ],
            "bo": "SINGLE"
          },
          {
            "atomIds": [
              0,
              4
            ],
            "bo": "SINGLE"
          },
          {
            "atomIds": [
              1,
              5
            ],
            "bo": "SINGLE"
          },
          {
            "atomIds": [
              1,
              6
            ],
            "bo": "SINGLE"
          }
        ]
      },
      "vertexId": 147985,
      "buildingBlockId": 31,
      "buildingBlockType": "FRAGMENT",
      "isRCV": false,
      "properties": {
        "ATTACHMENT_POINTS": "2#SubRS:1:SINGLE:0.2985%0.3840%-0.6258 "
      },
      "uniquefyingPropertyKeys": [],
      "allowedMutationTypes": [
        "DELETE",
        "EXTEND",
        "CHANGEBRANCH",
        "CHANGELINK",
        "ADDLINK",
        "DELETELINK",
        "DELETECHAIN"
      ],
      "vertexType": "MolecularFragment"
    },
    {
      "lstAPs": [
        {
          "id": 193846,
          "atomPositionNumber": 0,
          "atomPositionNumberInMol": 24,
          "apClass": {
            "rule": "SubRS",
            "subClass": 1,
            "bndTyp": "SINGLE"
          },
          "dirVec": {
            "x": 0.2865,
            "y": 0.3959,
            "z": -0.6387
          }
        }
      ],
      "lstSymAPs": [],
      "mol": {
        "atoms": [
          {
            "elSymbol": "C",
            "p3d": {
              "x": 0.3969,
              "y": -0.0496,
              "z": 0.8235
            }
          },
          {
            "elSymbol": "H",
            "p3d": {
              "x": -0.6146,
              "y": -0.163,
              "z": 1.2402
            }
          },
          {
            "elSymbol": "H",
            "p3d": {
              "x": 0.9335,
              "y": -0.9979,
              "z": 0.8998
            }
          },
          {
            "elSymbol": "H",
            "p3d": {
              "x": 0.9252,
              "y": 0.7237,
              "z": 1.3995
            }
          }
        ],
        "bonds": [
          {
            "atomIds": [
              0,
              1
            ],
            "bo": "SINGLE"
          },
          {
            "atomIds": [
              0,
              2
            ],
            "bo": "SINGLE"
          },
          {
            "atomIds": [
              0,
              3
            ],
            "bo": "SINGLE"
          }
        ]
      },
      "vertexId": 148076,
      "buildingBlockId": 30,
      "buildingBlockType": "FRAGMENT",
      "isRCV": false,
      "properties": {
        "ATTACHMENT_POINTS": "1#SubRS:1:SINGLE:0.2865%0.3959%-0.6387 "
      },
      "uniquefyingPropertyKeys": [],
      "allowedMutationTypes": [
        "DELETE",
        "EXTEND",
        "CHANGEBRANCH",
        "CHANGELINK",
        "ADDLINK",
        "DELETELINK",
        "DELETECHAIN"
      ],
      "vertexType": "MolecularFragment"
    },
    {
      "lstAPs": [
        {
          "id": 193847,
          "atomPositionNumber": 1,
          "atomPositionNumberInMol": 29,
          "apClass": {
            "rule": "SubRS",
            "subClass": 1,
            "bndTyp": "SINGLE"
          },
          "dirVec": {
            "x": 0.2985,
            "y": 0.384,
            "z": -0.6258
          }
        }
      ],
      "lstSymAPs": [],
      "mol": {
        "atoms": [
          {
            "elSymbol": "C",
            "p3d": {
              "x": -1.0244,
              "y": -0.2225,
              "z": 1.3991
            }
          },
          {
            "elSymbol": "C",
            "p3d": {
              "x": 0.3973,
              "y": -0.042,
              "z": 0.8195
            }
          },
          {
            "elSymbol": "H",
            "p3d": {
              "x": -1.5635,
              "y": -0.9908,
              "z": 0.8263
            }
          },
          {
            "elSymbol": "H",
            "p3d": {
              "x": -0.941,
              "y": -0.535,
              "z": 2.446
            }
          },
          {
            "elSymbol": "H",
            "p3d": {
              "x": -1.5586,
              "y": 0.7335,
              "z": 1.3382
            }
          },
          {
            "elSymbol": "H",
            "p3d": {
              "x": 0.9335,
              "y": 0.7221,
              "z": 1.4011
            }
          },
          {
            "elSymbol": "H",
            "p3d": {
              "x": 0.927,
              "y": -1.0102,
              "z": 0.9001
            }
          }
        ],
        "bonds": [
          {
            "atomIds": [
              0,
              1
            ],
            "bo": "SINGLE"
          },
          {
            "atomIds": [
              0,
              2
            ],
            "bo": "SINGLE"
          },
          {
            "atomIds": [
              0,
              3
            ],
            "bo": "SINGLE"
          },
          {
            "atomIds": [
              0,
              4
            ],
            "bo": "SINGLE"
          },
          {
            "atomIds": [
              1,
              5
            ],
            "bo": "SINGLE"
          },
          {
            "atomIds": [
              1,
              6
            ],
            "bo": "SINGLE"
          }
        ]
      },
      "vertexId": 148073,
      "buildingBlockId": 31,
      "buildingBlockType": "FRAGMENT",
      "isRCV": false,
      "properties": {
        "ATTACHMENT_POINTS": "2#SubRS:1:SINGLE:0.2985%0.3840%-0.6258 "
      },
      "uniquefyingPropertyKeys": [],
      "allowedMutationTypes": [
        "DELETE",
        "EXTEND",
        "CHANGEBRANCH",
        "CHANGELINK",
        "ADDLINK",
        "DELETELINK",
        "DELETECHAIN"
      ],
      "vertexType": "MolecularFragment"
    },
    {
      "lstAPs": [
        {
          "id": 193848,
          "atomPositionNumber": 0,
          "atomPositionNumberInMol": 35,
          "apClass": {
            "rule": "SubRS",
            "subClass": 1,
            "bndTyp": "SINGLE"
          },
          "dirVec": {
            "x": 0.2865,
            "y": 0.3959,
            "z": -0.6387
          }
        }
      ],
      "lstSymAPs": [],
      "mol": {
        "atoms": [
          {
            "elSymbol": "C",
            "p3d": {
              "x": 0.3969,
              "y": -0.0496,
              "z": 0.8235
            }
          },
          {
            "elSymbol": "H",
            "p3d": {
              "x": -0.6146,
              "y": -0.163,
              "z": 1.2402
            }
          },
          {
            "elSymbol": "H",
            "p3d": {
              "x": 0.9335,
              "y": -0.9979,
              "z": 0.8998
            }
          },
          {
            "elSymbol": "H",
            "p3d": {
              "x": 0.9252,
              "y": 0.7237,
              "z": 1.3995
            }
          }
        ],
        "bonds": [
          {
            "atomIds": [
              0,
              1
            ],
            "bo": "SINGLE"
          },
          {
            "atomIds": [
              0,
              2
            ],
            "bo": "SINGLE"
          },
          {
            "atomIds": [
              0,
              3
            ],
            "bo": "SINGLE"
          }
        ]
      },
      "vertexId": 148074,
      "buildingBlockId": 30,
      "buildingBlockType": "FRAGMENT",
      "isRCV": false,
      "properties": {
        "ATTACHMENT_POINTS": "1#SubRS:1:SINGLE:0.2865%0.3959%-0.6387 "
      },
      "uniquefyingPropertyKeys": [],
      "allowedMutationTypes": [
        "DELETE",
        "EXTEND",
        "CHANGEBRANCH",
        "CHANGELINK",
        "ADDLINK",
        "DELETELINK",
        "DELETECHAIN"
      ],
      "vertexType": "MolecularFragment"
    },
    {
      "lstAPs": [
        {
          "id": 193849,
          "atomPositionNumber": 0,
          "atomPositionNumberInMol": 39,
          "apClass": {
            "rule": "SubRS",
            "subClass": 1,
            "bndTyp": "SINGLE"
          },
          "dirVec": {
            "x": 0.2865,
            "y": 0.3959,
            "z": -0.6387
          }
        }
      ],
      "lstSymAPs": [],
      "mol": {
        "atoms": [
          {
            "elSymbol": "C",
            "p3d": {
              "x": 0.3969,
              "y": -0.0496,
              "z": 0.8235
            }
          },
          {
            "elSymbol": "H",
            "p3d": {
              "x": -0.6146,
              "y": -0.163,
              "z": 1.2402
            }
          },
          {
            "elSymbol": "H",
            "p3d": {
              "x": 0.9335,
              "y": -0.9979,
              "z": 0.8998
            }
          },
          {
            "elSymbol": "H",
            "p3d": {
              "x": 0.9252,
              "y": 0.7237,
              "z": 1.3995
            }
          }
        ],
        "bonds": [
          {
            "atomIds": [
              0,
              1
            ],
            "bo": "SINGLE"
          },
          {
            "atomIds": [
              0,
              2
            ],
            "bo": "SINGLE"
          },
          {
            "atomIds": [
              0,
              3
            ],
            "bo": "SINGLE"
          }
        ]
      },
      "vertexId": 147996,
      "buildingBlockId": 30,
      "buildingBlockType": "FRAGMENT",
      "isRCV": false,
      "properties": {
        "ATTACHMENT_POINTS": "1#SubRS:1:SINGLE:0.2865%0.3959%-0.6387 "
      },
      "uniquefyingPropertyKeys": [],
      "allowedMutationTypes": [
        "DELETE",
        "EXTEND",
        "CHANGEBRANCH",
        "CHANGELINK",
        "ADDLINK",
        "DELETELINK",
        "DELETECHAIN"
      ],
      "vertexType": "MolecularFragment"
    }
  ],
  "gEdges": [
    {
      "srcAPID": 193778,
      "trgAPID": 193781,
      "bondType": "SINGLE"
    },
    {
      "srcAPID": 193780,
      "trgAPID": 193784,
      "bondType": "SINGLE"
    },
    {
      "srcAPID": 193779,
      "trgAPID": 193789,
      "bondType": "SINGLE"
    },
    {
      "srcAPID": 193787,
      "trgAPID": 193844,
      "bondType": "SINGLE"
    },
    {
      "srcAPID": 193782,
      "trgAPID": 193845,
      "bondType": "SINGLE"
    },
    {
      "srcAPID": 193788,
      "trgAPID": 193846,
      "bondType": "SINGLE"
    },
    {
      "srcAPID": 193783,
      "trgAPID": 193847,
      "bondType": "SINGLE"
    },
    {
      "srcAPID": 193786,
      "trgAPID": 193848,
      "bondType": "SINGLE"
    },
    {
      "srcAPID": 193785,
      "trgAPID": 193849,
      "bondType": "SINGLE"
    }
  ],
  "gRings": [],
  "symVertices": [
    {
      "symIds": [
        147985,
        148073
      ]
    },
    {
      "symIds": [
        148075,
        148076,
        148074,
        147996
      ]
    }
  ]
}

> <SMILES>
[Pt](C#O)(C#N)([C]1N(C(C(N1C(C([H])([H])[H])([H])[H])(C([H])([H])[H])C([H])([H])[H])(C([H])([H])[H])C([H])([H])[H])C(C([H])([H])[H])([H])[H])SC([H])([H])[H]

$$$$
