M00001782
  CDK     04222209173D

 42 43  0  0  0  0  0  0  0  0999 V2000
    0.1694   -2.0391   -0.1392 Pt  0  0  0  0  0  0  0  0  0  0  0  0
    0.3369   -3.9892   -0.0480 C   0  0  0  0  0  0  0  0  0  0  0  0
    0.4543   -5.1233    0.0258 O   0  0  0  0  0  0  0  0  0  0  0  0
   -1.6136   -1.4170   -0.9848 O   0  0  0  0  0  0  0  0  0  0  0  0
   -2.4737   -2.4789   -1.3292 C   0  0  0  0  0  0  0  0  0  0  0  0
   -3.3411   -2.0226   -1.8268 H   0  0  0  0  0  0  0  0  0  0  0  0
   -2.7910   -3.0024   -0.4191 H   0  0  0  0  0  0  0  0  0  0  0  0
   -1.9590   -3.1597   -2.0184 H   0  0  0  0  0  0  0  0  0  0  0  0
    0.0360    0.2257   -0.1108 P   0  0  0  0  0  0  0  0  0  0  0  0
   -1.5797   -0.3348    2.0037 C   0  0  0  0  0  0  0  0  0  0  0  0
   -1.3785    0.8116    1.0184 C   0  0  0  0  0  0  0  0  0  0  0  0
   -2.6145    1.1016    0.1833 C   0  0  0  0  0  0  0  0  0  0  0  0
   -2.9152    0.2358   -0.4407 H   0  0  0  0  0  0  0  0  0  0  0  0
   -2.4918    1.9592   -0.4918 H   0  0  0  0  0  0  0  0  0  0  0  0
   -3.4740    1.3255    0.8295 H   0  0  0  0  0  0  0  0  0  0  0  0
   -2.4059   -0.1019    2.6939 H   0  0  0  0  0  0  0  0  0  0  0  0
   -1.8707   -1.2799    1.5046 H   0  0  0  0  0  0  0  0  0  0  0  0
   -0.7013   -0.5317    2.6351 H   0  0  0  0  0  0  0  0  0  0  0  0
   -1.0723    1.7402    1.5645 H   0  0  0  0  0  0  0  0  0  0  0  0
   -0.0928    0.9949   -1.6786 N   0  0  0  0  0  0  0  0  0  0  0  0
   -0.5247    0.3707   -2.8772 C   0  0  0  0  0  0  0  0  0  0  0  0
   -0.8393   -0.6657   -2.8993 H   0  0  0  0  0  0  0  0  0  0  0  0
   -0.4902    1.3200   -3.8813 C   0  0  0  0  0  0  0  0  0  0  0  0
   -0.7522    1.1765   -4.9108 H   0  0  0  0  0  0  0  0  0  0  0  0
   -0.0307    2.5578   -3.3135 C   0  0  0  0  0  0  0  0  0  0  0  0
    0.1010    3.4716   -3.8592 H   0  0  0  0  0  0  0  0  0  0  0  0
    0.2093    2.3550   -1.9677 C   0  0  0  0  0  0  0  0  0  0  0  0
    0.5803    3.0400   -1.2268 H   0  0  0  0  0  0  0  0  0  0  0  0
    1.4689    0.9894    0.5802 N   0  0  0  0  0  0  0  0  0  0  0  0
    2.8099    0.6005    0.3270 C   0  0  0  0  0  0  0  0  0  0  0  0
    3.0647   -0.2269   -0.3206 H   0  0  0  0  0  0  0  0  0  0  0  0
    3.6405    1.4437    1.0416 C   0  0  0  0  0  0  0  0  0  0  0  0
    4.7124    1.4148    1.0713 H   0  0  0  0  0  0  0  0  0  0  0  0
    2.8194    2.3816    1.7547 C   0  0  0  0  0  0  0  0  0  0  0  0
    3.1886    3.1581    2.3964 H   0  0  0  0  0  0  0  0  0  0  0  0
    1.4970    2.1021    1.4670 C   0  0  0  0  0  0  0  0  0  0  0  0
    0.6046    2.5887    1.8174 H   0  0  0  0  0  0  0  0  0  0  0  0
    2.2098   -2.6305    0.7680 S   0  0  0  0  0  0  0  0  0  0  0  0
    1.9135   -2.1609    2.4915 C   0  0  0  0  0  0  0  0  0  0  0  0
    2.5380   -2.7852    3.1433 H   0  0  0  0  0  0  0  0  0  0  0  0
    0.8660   -2.3035    2.7737 H   0  0  0  0  0  0  0  0  0  0  0  0
    2.1936   -1.1118    2.6527 H   0  0  0  0  0  0  0  0  0  0  0  0
  2  3  3  0  0  0  0
  1  2  1  0  0  0  0
  5  6  1  0  0  0  0
  5  7  1  0  0  0  0
  5  8  1  0  0  0  0
  4  5  1  0  0  0  0
  1  4  1  0  0  0  0
  1  9  1  0  0  0  0
 10 11  1  0  0  0  0
 11 12  1  0  0  0  0
 12 13  1  0  0  0  0
 12 14  1  0  0  0  0
 12 15  1  0  0  0  0
 10 16  1  0  0  0  0
 10 17  1  0  0  0  0
 10 18  1  0  0  0  0
 11 19  1  0  0  0  0
  9 11  1  0  0  0  0
 20 21  1  0  0  0  0
 21 22  1  0  0  0  0
 23 21  2  0  0  0  0
 24 23  1  0  0  0  0
 25 23  1  0  0  0  0
 26 25  1  0  0  0  0
 27 20  1  0  0  0  0
 28 27  1  0  0  0  0
 25 27  2  0  0  0  0
  9 20  1  0  0  0  0
 29 30  1  0  0  0  0
 30 31  1  0  0  0  0
 32 30  2  0  0  0  0
 33 32  1  0  0  0  0
 34 32  1  0  0  0  0
 35 34  1  0  0  0  0
 36 29  1  0  0  0  0
 37 36  1  0  0  0  0
 34 36  2  0  0  0  0
  9 29  1  0  0  0  0
 39 40  1  0  0  0  0
 39 41  1  0  0  0  0
 39 42  1  0  0  0  0
 38 39  1  0  0  0  0
  1 38  1  0  0  0  0
M  END
> <PM6_ENERGY>
-139.335

> <UID>
YTAYQFMSXIAVQF-QIZBLPHLNA-M

> <FITNESS>
1.14255

> <GCODE>
2393

> <GraphENC>
2393 72_1_0,80_65_1,100_3_1,85_64_1,44352_33_1,44344_10_1,44764_10_1, 72_0_80_0_SINGLE_Xlig:0_Xlig:1,72_2_100_3_SINGLE_scaff:0_MBisAminoPhosphine:1,72_1_85_0_SINGLE_Xlig:0_Xlig:1,100_2_44352_0_SINGLE_LBisAminoPhosphineSubR:0_SubRM:1,100_0_44344_0_SINGLE_LBisAminoPhosphineN:0_LAminoPhosphineCycloN:1,100_1_44764_0_SINGLE_LBisAminoPhosphineN:0_LAminoPhosphineCycloN:1, SymmetricSet [symIds=[44344, 44764]] 

> <GraphJson>
{
  "graphId": 2393,
  "gVertices": [
    {
      "lstAPs": [
        {
          "id": 59760,
          "atomPositionNumber": 0,
          "atomPositionNumberInMol": 0,
          "apClass": {
            "rule": "Xlig",
            "subClass": 0,
            "bndTyp": "SINGLE"
          },
          "dirVec": {
            "x": -2.3339,
            "y": -0.0087,
            "z": 0.8172
          }
        },
        {
          "id": 59761,
          "atomPositionNumber": 0,
          "atomPositionNumberInMol": 0,
          "apClass": {
            "rule": "Xlig",
            "subClass": 0,
            "bndTyp": "SINGLE"
          },
          "dirVec": {
            "x": 2.336,
            "y": -5.0E-4,
            "z": 0.829
          }
        },
        {
          "id": 59762,
          "atomPositionNumber": 0,
          "atomPositionNumberInMol": 0,
          "apClass": {
            "rule": "scaff",
            "subClass": 0,
            "bndTyp": "SINGLE"
          },
          "dirVec": {
            "x": -0.0095,
            "y": 0.0046,
            "z": -1.7113
          }
        }
      ],
      "lstSymAPs": [
        {
          "symIds": [
            0,
            1
          ]
        }
      ],
      "mol": {
        "atoms": [
          {
            "elSymbol": "Pt",
            "p3d": {
              "x": -0.0098,
              "y": 0.0049,
              "z": 0.6289
            }
          },
          {
            "elSymbol": "C",
            "p3d": {
              "x": -6.0E-4,
              "y": 0.0016,
              "z": 2.5609
            }
          },
          {
            "elSymbol": "O",
            "p3d": {
              "x": 0.0025,
              "y": -0.0041,
              "z": 3.6974
            }
          },
          {
            "elSymbol": "Du",
            "p3d": {
              "x": -0.007,
              "y": 1.0013,
              "z": 0.6372
            }
          },
          {
            "elSymbol": "Du",
            "p3d": {
              "x": -0.0014,
              "y": 0.9902,
              "z": 2.5698
            }
          }
        ],
        "bonds": [
          {
            "atomIds": [
              1,
              2
            ],
            "bo": "TRIPLE"
          },
          {
            "atomIds": [
              0,
              1
            ],
            "bo": "SINGLE"
          },
          {
            "atomIds": [
              3,
              0
            ],
            "bo": "SINGLE"
          },
          {
            "atomIds": [
              4,
              1
            ],
            "bo": "SINGLE"
          }
        ]
      },
      "vertexId": 72,
      "buildingBlockId": 0,
      "buildingBlockType": "SCAFFOLD",
      "isRCV": false,
      "properties": {
        "ATTACHMENT_POINTS": "1#Xlig:0:SINGLE:-2.3339%-0.0087%0.8172,Xlig:0:SINGLE:2.3360%-0.0005%0.8290,scaff:0:SINGLE:-0.0095%0.0046%-1.7113 "
      },
      "uniquefyingPropertyKeys": [],
      "allowedMutationTypes": [
        "DELETE",
        "EXTEND",
        "CHANGEBRANCH",
        "CHANGELINK",
        "ADDLINK",
        "DELETELINK",
        "DELETECHAIN"
      ],
      "vertexType": "MolecularFragment"
    },
    {
      "lstAPs": [
        {
          "id": 59763,
          "atomPositionNumber": 0,
          "atomPositionNumberInMol": 5,
          "apClass": {
            "rule": "Xlig",
            "subClass": 1,
            "bndTyp": "SINGLE"
          },
          "dirVec": {
            "x": -0.1753,
            "y": 0.0948,
            "z": -0.4464
          }
        }
      ],
      "lstSymAPs": [],
      "mol": {
        "atoms": [
          {
            "elSymbol": "O",
            "p3d": {
              "x": -0.3534,
              "y": 2.1044,
              "z": -0.7339
            }
          },
          {
            "elSymbol": "C",
            "p3d": {
              "x": -0.5345,
              "y": 2.7646,
              "z": 0.4801
            }
          },
          {
            "elSymbol": "H",
            "p3d": {
              "x": -0.3728,
              "y": 3.8337,
              "z": 0.2724
            }
          },
          {
            "elSymbol": "H",
            "p3d": {
              "x": 0.1816,
              "y": 2.4161,
              "z": 1.2384
            }
          },
          {
            "elSymbol": "H",
            "p3d": {
              "x": -1.553,
              "y": 2.6149,
              "z": 0.8489
            }
          }
        ],
        "bonds": [
          {
            "atomIds": [
              1,
              2
            ],
            "bo": "SINGLE"
          },
          {
            "atomIds": [
              1,
              3
            ],
            "bo": "SINGLE"
          },
          {
            "atomIds": [
              1,
              4
            ],
            "bo": "SINGLE"
          },
          {
            "atomIds": [
              0,
              1
            ],
            "bo": "SINGLE"
          }
        ]
      },
      "vertexId": 80,
      "buildingBlockId": 64,
      "buildingBlockType": "FRAGMENT",
      "isRCV": false,
      "properties": {
        "ATTACHMENT_POINTS": "1#Xlig:1:SINGLE:-0.1753%0.0948%-0.4464 "
      },
      "uniquefyingPropertyKeys": [],
      "allowedMutationTypes": [
        "DELETE",
        "EXTEND",
        "CHANGEBRANCH",
        "CHANGELINK",
        "ADDLINK",
        "DELETELINK",
        "DELETECHAIN"
      ],
      "vertexType": "MolecularFragment"
    },
    {
      "lstAPs": [
        {
          "id": 59764,
          "atomPositionNumber": 0,
          "atomPositionNumberInMol": 10,
          "apClass": {
            "rule": "LBisAminoPhosphineN",
            "subClass": 0,
            "bndTyp": "SINGLE"
          },
          "dirVec": {
            "x": -1.9272,
            "y": -0.2351,
            "z": 5.6045
          }
        },
        {
          "id": 59765,
          "atomPositionNumber": 0,
          "atomPositionNumberInMol": 10,
          "apClass": {
            "rule": "LBisAminoPhosphineN",
            "subClass": 0,
            "bndTyp": "SINGLE"
          },
          "dirVec": {
            "x": -1.4136,
            "y": -2.2231,
            "z": 3.8983
          }
        },
        {
          "id": 59766,
          "atomPositionNumber": 0,
          "atomPositionNumberInMol": 10,
          "apClass": {
            "rule": "LBisAminoPhosphineSubR",
            "subClass": 0,
            "bndTyp": "SINGLE"
          },
          "dirVec": {
            "x": -3.1852,
            "y": -0.3594,
            "z": 3.1924
          }
        },
        {
          "id": 59767,
          "atomPositionNumber": 0,
          "atomPositionNumberInMol": 10,
          "apClass": {
            "rule": "MBisAminoPhosphine",
            "subClass": 1,
            "bndTyp": "SINGLE"
          },
          "dirVec": {
            "x": 0.1796,
            "y": 0.6567,
            "z": 3.3484
          }
        }
      ],
      "lstSymAPs": [
        {
          "symIds": [
            0,
            1
          ]
        }
      ],
      "mol": {
        "atoms": [
          {
            "elSymbol": "P",
            "p3d": {
              "x": -1.6038,
              "y": -0.5663,
              "z": 4.0324
            }
          }
        ],
        "bonds": []
      },
      "vertexId": 100,
      "buildingBlockId": 2,
      "buildingBlockType": "FRAGMENT",
      "isRCV": false,
      "properties": {
        "ATTACHMENT_POINTS": "1#LBisAminoPhosphineN:0:SINGLE:-1.9272%-0.2351%5.6045,LBisAminoPhosphineN:0:SINGLE:-1.4136%-2.2231%3.8983,LBisAminoPhosphineSubR:0:SINGLE:-3.1852%-0.3594%3.1924,MBisAminoPhosphine:1:SINGLE:0.1796%0.6567%3.3484 "
      },
      "uniquefyingPropertyKeys": [],
      "allowedMutationTypes": [
        "DELETE",
        "EXTEND",
        "CHANGEBRANCH",
        "CHANGELINK",
        "ADDLINK",
        "DELETELINK",
        "DELETECHAIN"
      ],
      "vertexType": "MolecularFragment"
    },
    {
      "lstAPs": [
        {
          "id": 59768,
          "atomPositionNumber": 0,
          "atomPositionNumberInMol": 39,
          "apClass": {
            "rule": "Xlig",
            "subClass": 1,
            "bndTyp": "SINGLE"
          },
          "dirVec": {
            "x": -0.102,
            "y": 0.0185,
            "z": -1.0265
          }
        }
      ],
      "lstSymAPs": [],
      "mol": {
        "atoms": [
          {
            "elSymbol": "S",
            "p3d": {
              "x": -0.3267,
              "y": 2.3403,
              "z": -1.0022
            }
          },
          {
            "elSymbol": "C",
            "p3d": {
              "x": -0.626,
              "y": 2.4866,
              "z": 0.7805
            }
          },
          {
            "elSymbol": "H",
            "p3d": {
              "x": 0.1766,
              "y": 3.089,
              "z": 1.2414
            }
          },
          {
            "elSymbol": "H",
            "p3d": {
              "x": -0.651,
              "y": 1.5065,
              "z": 1.2643
            }
          },
          {
            "elSymbol": "H",
            "p3d": {
              "x": -1.5658,
              "y": 2.981,
              "z": 0.9515
            }
          }
        ],
        "bonds": [
          {
            "atomIds": [
              1,
              2
            ],
            "bo": "SINGLE"
          },
          {
            "atomIds": [
              1,
              3
            ],
            "bo": "SINGLE"
          },
          {
            "atomIds": [
              1,
              4
            ],
            "bo": "SINGLE"
          },
          {
            "atomIds": [
              0,
              1
            ],
            "bo": "SINGLE"
          }
        ]
      },
      "vertexId": 85,
      "buildingBlockId": 63,
      "buildingBlockType": "FRAGMENT",
      "isRCV": false,
      "properties": {
        "ATTACHMENT_POINTS": "1#Xlig:1:SINGLE:-0.1020%0.0185%-1.0265 "
      },
      "uniquefyingPropertyKeys": [],
      "allowedMutationTypes": [
        "DELETE",
        "EXTEND",
        "CHANGEBRANCH",
        "CHANGELINK",
        "ADDLINK",
        "DELETELINK",
        "DELETECHAIN"
      ],
      "vertexType": "MolecularFragment"
    },
    {
      "lstAPs": [
        {
          "id": 59805,
          "atomPositionNumber": 1,
          "atomPositionNumberInMol": 12,
          "apClass": {
            "rule": "SubRM",
            "subClass": 1,
            "bndTyp": "SINGLE"
          },
          "dirVec": {
            "x": 0.2868,
            "y": 0.385,
            "z": -0.643
          }
        }
      ],
      "lstSymAPs": [],
      "mol": {
        "atoms": [
          {
            "elSymbol": "C",
            "p3d": {
              "x": 1.141,
              "y": 1.0262,
              "z": 1.6347
            }
          },
          {
            "elSymbol": "C",
            "p3d": {
              "x": 0.3967,
              "y": -0.0479,
              "z": 0.8227
            }
          },
          {
            "elSymbol": "C",
            "p3d": {
              "x": 1.1459,
              "y": -1.371,
              "z": 0.9201
            }
          },
          {
            "elSymbol": "H",
            "p3d": {
              "x": 2.1461,
              "y": -1.2583,
              "z": 0.4976
            }
          },
          {
            "elSymbol": "H",
            "p3d": {
              "x": 0.6013,
              "y": -2.1408,
              "z": 0.3461
            }
          },
          {
            "elSymbol": "H",
            "p3d": {
              "x": 1.2113,
              "y": -1.6946,
              "z": 1.9559
            }
          },
          {
            "elSymbol": "H",
            "p3d": {
              "x": 2.1541,
              "y": 1.1435,
              "z": 1.2119
            }
          },
          {
            "elSymbol": "H",
            "p3d": {
              "x": 0.6143,
              "y": 1.976,
              "z": 1.5626
            }
          },
          {
            "elSymbol": "H",
            "p3d": {
              "x": 1.2058,
              "y": 0.7088,
              "z": 2.6868
            }
          },
          {
            "elSymbol": "H",
            "p3d": {
              "x": -0.6215,
              "y": -0.1789,
              "z": 1.2377
            }
          }
        ],
        "bonds": [
          {
            "atomIds": [
              0,
              1
            ],
            "bo": "SINGLE"
          },
          {
            "atomIds": [
              1,
              2
            ],
            "bo": "SINGLE"
          },
          {
            "atomIds": [
              2,
              3
            ],
            "bo": "SINGLE"
          },
          {
            "atomIds": [
              2,
              4
            ],
            "bo": "SINGLE"
          },
          {
            "atomIds": [
              2,
              5
            ],
            "bo": "SINGLE"
          },
          {
            "atomIds": [
              0,
              6
            ],
            "bo": "SINGLE"
          },
          {
            "atomIds": [
              0,
              7
            ],
            "bo": "SINGLE"
          },
          {
            "atomIds": [
              0,
              8
            ],
            "bo": "SINGLE"
          },
          {
            "atomIds": [
              1,
              9
            ],
            "bo": "SINGLE"
          }
        ]
      },
      "vertexId": 44352,
      "buildingBlockId": 32,
      "buildingBlockType": "FRAGMENT",
      "isRCV": false,
      "properties": {
        "ATTACHMENT_POINTS": "2#SubRM:1:SINGLE:0.2868%0.3850%-0.6430 "
      },
      "uniquefyingPropertyKeys": [],
      "allowedMutationTypes": [
        "DELETE",
        "EXTEND",
        "CHANGEBRANCH",
        "CHANGELINK",
        "ADDLINK",
        "DELETELINK",
        "DELETECHAIN"
      ],
      "vertexType": "MolecularFragment"
    },
    {
      "lstAPs": [
        {
          "id": 59806,
          "atomPositionNumber": 0,
          "atomPositionNumberInMol": 21,
          "apClass": {
            "rule": "LAminoPhosphineCycloN",
            "subClass": 1,
            "bndTyp": "SINGLE"
          },
          "dirVec": {
            "x": -1.3075,
            "y": 5.4354,
            "z": 7.3919
          }
        }
      ],
      "lstSymAPs": [],
      "mol": {
        "atoms": [
          {
            "elSymbol": "N",
            "p3d": {
              "x": -0.1435,
              "y": 5.4101,
              "z": 8.6586
            }
          },
          {
            "elSymbol": "C",
            "p3d": {
              "x": 1.0373,
              "y": 6.1488,
              "z": 8.6167
            }
          },
          {
            "elSymbol": "H",
            "p3d": {
              "x": 1.3388,
              "y": 6.7891,
              "z": 7.7925
            }
          },
          {
            "elSymbol": "C",
            "p3d": {
              "x": 1.7319,
              "y": 5.9048,
              "z": 9.7532
            }
          },
          {
            "elSymbol": "H",
            "p3d": {
              "x": 2.7093,
              "y": 6.3384,
              "z": 10.0093
            }
          },
          {
            "elSymbol": "C",
            "p3d": {
              "x": 0.9843,
              "y": 5.0017,
              "z": 10.5353
            }
          },
          {
            "elSymbol": "H",
            "p3d": {
              "x": 1.2753,
              "y": 4.5945,
              "z": 11.5061
            }
          },
          {
            "elSymbol": "C",
            "p3d": {
              "x": -0.1556,
              "y": 4.7101,
              "z": 9.8537
            }
          },
          {
            "elSymbol": "H",
            "p3d": {
              "x": -0.9523,
              "y": 4.0313,
              "z": 10.1872
            }
          }
        ],
        "bonds": [
          {
            "atomIds": [
              0,
              1
            ],
            "bo": "SINGLE"
          },
          {
            "atomIds": [
              1,
              2
            ],
            "bo": "SINGLE"
          },
          {
            "atomIds": [
              3,
              1
            ],
            "bo": "DOUBLE"
          },
          {
            "atomIds": [
              4,
              3
            ],
            "bo": "SINGLE"
          },
          {
            "atomIds": [
              5,
              3
            ],
            "bo": "SINGLE"
          },
          {
            "atomIds": [
              6,
              5
            ],
            "bo": "SINGLE"
          },
          {
            "atomIds": [
              7,
              0
            ],
            "bo": "SINGLE"
          },
          {
            "atomIds": [
              8,
              7
            ],
            "bo": "SINGLE"
          },
          {
            "atomIds": [
              5,
              7
            ],
            "bo": "DOUBLE"
          }
        ]
      },
      "vertexId": 44344,
      "buildingBlockId": 9,
      "buildingBlockType": "FRAGMENT",
      "isRCV": false,
      "properties": {
        "ATTACHMENT_POINTS": "1#LAminoPhosphineCycloN:1:SINGLE:-1.3075%5.4354%7.3919 "
      },
      "uniquefyingPropertyKeys": [],
      "allowedMutationTypes": [
        "DELETE",
        "EXTEND",
        "CHANGEBRANCH",
        "CHANGELINK",
        "ADDLINK",
        "DELETELINK",
        "DELETECHAIN"
      ],
      "vertexType": "MolecularFragment"
    },
    {
      "lstAPs": [
        {
          "id": 59807,
          "atomPositionNumber": 0,
          "atomPositionNumberInMol": 30,
          "apClass": {
            "rule": "LAminoPhosphineCycloN",
            "subClass": 1,
            "bndTyp": "SINGLE"
          },
          "dirVec": {
            "x": -1.3075,
            "y": 5.4354,
            "z": 7.3919
          }
        }
      ],
      "lstSymAPs": [],
      "mol": {
        "atoms": [
          {
            "elSymbol": "N",
            "p3d": {
              "x": -0.1435,
              "y": 5.4101,
              "z": 8.6586
            }
          },
          {
            "elSymbol": "C",
            "p3d": {
              "x": 1.0373,
              "y": 6.1488,
              "z": 8.6167
            }
          },
          {
            "elSymbol": "H",
            "p3d": {
              "x": 1.3388,
              "y": 6.7891,
              "z": 7.7925
            }
          },
          {
            "elSymbol": "C",
            "p3d": {
              "x": 1.7319,
              "y": 5.9048,
              "z": 9.7532
            }
          },
          {
            "elSymbol": "H",
            "p3d": {
              "x": 2.7093,
              "y": 6.3384,
              "z": 10.0093
            }
          },
          {
            "elSymbol": "C",
            "p3d": {
              "x": 0.9843,
              "y": 5.0017,
              "z": 10.5353
            }
          },
          {
            "elSymbol": "H",
            "p3d": {
              "x": 1.2753,
              "y": 4.5945,
              "z": 11.5061
            }
          },
          {
            "elSymbol": "C",
            "p3d": {
              "x": -0.1556,
              "y": 4.7101,
              "z": 9.8537
            }
          },
          {
            "elSymbol": "H",
            "p3d": {
              "x": -0.9523,
              "y": 4.0313,
              "z": 10.1872
            }
          }
        ],
        "bonds": [
          {
            "atomIds": [
              0,
              1
            ],
            "bo": "SINGLE"
          },
          {
            "atomIds": [
              1,
              2
            ],
            "bo": "SINGLE"
          },
          {
            "atomIds": [
              3,
              1
            ],
            "bo": "DOUBLE"
          },
          {
            "atomIds": [
              4,
              3
            ],
            "bo": "SINGLE"
          },
          {
            "atomIds": [
              5,
              3
            ],
            "bo": "SINGLE"
          },
          {
            "atomIds": [
              6,
              5
            ],
            "bo": "SINGLE"
          },
          {
            "atomIds": [
              7,
              0
            ],
            "bo": "SINGLE"
          },
          {
            "atomIds": [
              8,
              7
            ],
            "bo": "SINGLE"
          },
          {
            "atomIds": [
              5,
              7
            ],
            "bo": "DOUBLE"
          }
        ]
      },
      "vertexId": 44764,
      "buildingBlockId": 9,
      "buildingBlockType": "FRAGMENT",
      "isRCV": false,
      "properties": {
        "ATTACHMENT_POINTS": "1#LAminoPhosphineCycloN:1:SINGLE:-1.3075%5.4354%7.3919 "
      },
      "uniquefyingPropertyKeys": [],
      "allowedMutationTypes": [
        "DELETE",
        "EXTEND",
        "CHANGEBRANCH",
        "CHANGELINK",
        "ADDLINK",
        "DELETELINK",
        "DELETECHAIN"
      ],
      "vertexType": "MolecularFragment"
    }
  ],
  "gEdges": [
    {
      "srcAPID": 59760,
      "trgAPID": 59763,
      "bondType": "SINGLE"
    },
    {
      "srcAPID": 59762,
      "trgAPID": 59767,
      "bondType": "SINGLE"
    },
    {
      "srcAPID": 59761,
      "trgAPID": 59768,
      "bondType": "SINGLE"
    },
    {
      "srcAPID": 59766,
      "trgAPID": 59805,
      "bondType": "SINGLE"
    },
    {
      "srcAPID": 59764,
      "trgAPID": 59806,
      "bondType": "SINGLE"
    },
    {
      "srcAPID": 59765,
      "trgAPID": 59807,
      "bondType": "SINGLE"
    }
  ],
  "gRings": [],
  "symVertices": [
    {
      "symIds": [
        44344,
        44764
      ]
    }
  ]
}

> <SMILES>
[Pt](C#O)(OC([H])([H])[H])([P](C(C([H])([H])[H])(C([H])([H])[H])[H])(N1C([H])=C([H])C([H])=C1[H])N2C([H])=C([H])C([H])=C2[H])SC([H])([H])[H]

$$$$
