M00017946
  CDK     04222215063D

 45 44  0  0  0  0  0  0  0  0999 V2000
   -2.3876    0.1727   -0.3610 Pt  0  0  0  0  0  0  0  0  0  0  0  0
   -4.3311    0.2065   -0.5811 C   0  0  0  0  0  0  0  0  0  0  0  0
   -5.4652    0.2177   -0.7044 O   0  0  0  0  0  0  0  0  0  0  0  0
   -2.4294    2.1548   -0.5978 C   0  0  0  0  0  0  0  0  0  0  0  0
   -2.5328    3.2938   -0.7655 N   0  0  0  0  0  0  0  0  0  0  0  0
   -0.1060    0.0841   -0.1656 P   0  0  0  0  0  0  0  0  0  0  0  0
    0.4575   -0.4417   -1.9334 C   0  0  0  0  0  0  0  0  0  0  0  0
   -0.5239    0.2695   -2.8690 C   0  0  0  0  0  0  0  0  0  0  0  0
    1.9011   -0.0444   -2.2218 C   0  0  0  0  0  0  0  0  0  0  0  0
    0.3018   -1.9594   -2.0134 C   0  0  0  0  0  0  0  0  0  0  0  0
   -0.4711    1.3670   -2.8212 H   0  0  0  0  0  0  0  0  0  0  0  0
   -0.7447   -2.2983   -1.9800 H   0  0  0  0  0  0  0  0  0  0  0  0
    2.1856   -0.3601   -3.2371 H   0  0  0  0  0  0  0  0  0  0  0  0
    2.6180   -0.5259   -1.5427 H   0  0  0  0  0  0  0  0  0  0  0  0
    0.7039   -2.3405   -2.9628 H   0  0  0  0  0  0  0  0  0  0  0  0
    0.8400   -2.4927   -1.2137 H   0  0  0  0  0  0  0  0  0  0  0  0
   -0.3022    0.0084   -3.9163 H   0  0  0  0  0  0  0  0  0  0  0  0
   -1.5788   -0.0280   -2.7127 H   0  0  0  0  0  0  0  0  0  0  0  0
    2.0682    1.0456   -2.1853 H   0  0  0  0  0  0  0  0  0  0  0  0
    0.5199   -1.1304    0.8093 O   0  0  0  0  0  0  0  0  0  0  0  0
    0.3728   -0.9317    3.2120 C   0  0  0  0  0  0  0  0  0  0  0  0
   -0.2459   -1.5897    1.9863 C   0  0  0  0  0  0  0  0  0  0  0  0
   -0.0191   -3.0922    1.9492 C   0  0  0  0  0  0  0  0  0  0  0  0
   -0.5173   -3.5547    1.0822 H   0  0  0  0  0  0  0  0  0  0  0  0
   -0.4114   -3.5838    2.8465 H   0  0  0  0  0  0  0  0  0  0  0  0
    1.0481   -3.3351    1.8657 H   0  0  0  0  0  0  0  0  0  0  0  0
   -0.0317   -1.3618    4.1368 H   0  0  0  0  0  0  0  0  0  0  0  0
    1.4612   -1.0766    3.2361 H   0  0  0  0  0  0  0  0  0  0  0  0
    0.1868    0.1548    3.2458 H   0  0  0  0  0  0  0  0  0  0  0  0
   -1.3245   -1.3281    1.8859 H   0  0  0  0  0  0  0  0  0  0  0  0
    0.8119    1.6594    0.4771 C   0  0  0  0  0  0  0  0  0  0  0  0
    2.2080    1.2257    0.9299 C   0  0  0  0  0  0  0  0  0  0  0  0
    0.9132    2.7102   -0.6239 C   0  0  0  0  0  0  0  0  0  0  0  0
    0.0020    2.1849    1.6619 C   0  0  0  0  0  0  0  0  0  0  0  0
    2.8796    0.9884    0.0953 H   0  0  0  0  0  0  0  0  0  0  0  0
   -1.0309    2.4669    1.4094 H   0  0  0  0  0  0  0  0  0  0  0  0
   -0.0578    3.0886   -0.9736 H   0  0  0  0  0  0  0  0  0  0  0  0
    1.4823    2.3708   -1.5047 H   0  0  0  0  0  0  0  0  0  0  0  0
   -0.0328    1.4838    2.5143 H   0  0  0  0  0  0  0  0  0  0  0  0
    0.4580    3.1081    2.0532 H   0  0  0  0  0  0  0  0  0  0  0  0
    2.6949    2.0360    1.4911 H   0  0  0  0  0  0  0  0  0  0  0  0
    2.1999    0.3487    1.5956 H   0  0  0  0  0  0  0  0  0  0  0  0
    1.4419    3.5997   -0.2464 H   0  0  0  0  0  0  0  0  0  0  0  0
   -2.5329   -1.8129   -0.2036 C   0  0  0  0  0  0  0  0  0  0  0  0
   -2.6795   -2.9579   -0.1465 N   0  0  0  0  0  0  0  0  0  0  0  0
  2  3  3  0  0  0  0
  1  2  1  0  0  0  0
  4  5  3  0  0  0  0
  1  4  1  0  0  0  0
  1  6  1  0  0  0  0
  7  8  1  0  0  0  0
  7  9  1  0  0  0  0
  7 10  1  0  0  0  0
  8 11  1  0  0  0  0
 10 12  1  0  0  0  0
  9 13  1  0  0  0  0
  9 14  1  0  0  0  0
 10 15  1  0  0  0  0
 10 16  1  0  0  0  0
  8 17  1  0  0  0  0
  8 18  1  0  0  0  0
  9 19  1  0  0  0  0
  6  7  1  0  0  0  0
  6 20  1  0  0  0  0
 21 22  1  0  0  0  0
 22 23  1  0  0  0  0
 23 24  1  0  0  0  0
 23 25  1  0  0  0  0
 23 26  1  0  0  0  0
 21 27  1  0  0  0  0
 21 28  1  0  0  0  0
 21 29  1  0  0  0  0
 22 30  1  0  0  0  0
 20 22  1  0  0  0  0
 31 32  1  0  0  0  0
 31 33  1  0  0  0  0
 31 34  1  0  0  0  0
 32 35  1  0  0  0  0
 34 36  1  0  0  0  0
 33 37  1  0  0  0  0
 33 38  1  0  0  0  0
 34 39  1  0  0  0  0
 34 40  1  0  0  0  0
 32 41  1  0  0  0  0
 32 42  1  0  0  0  0
 33 43  1  0  0  0  0
  6 31  1  0  0  0  0
 44 45  3  0  0  0  0
  1 44  1  0  0  0  0
M  END
> <PM6_ENERGY>
-335.894

> <UID>
KLJKZWGEQSQVHA-RQYPARJNNA-N

> <FITNESS>
1.14084

> <GCODE>
19307

> <GraphENC>
19307 72_1_0,81_66_1,109_47_1,87_66_1,210345_34_1,210261_48_1,210268_34_1,400841_33_1, 72_0_81_0_SINGLE_Xlig:0_Xlig:1,72_2_109_3_SINGLE_scaff:0_MPhosphinite:1,72_1_87_0_SINGLE_Xlig:0_Xlig:1,109_2_210345_0_SINGLE_LPhosphiniteSubR:0_SubRL:1,109_0_210261_0_SINGLE_LPhosphiniteSubO:0_LPhosphiniteSubO:1,109_1_210268_0_SINGLE_LPhosphiniteSubR:0_SubRL:1,210261_1_400841_0_SINGLE_OPhosphiniteSub:1_SubRM:1, SymmetricSet [symIds=[210345, 210268]] 

> <GraphJson>
{
  "graphId": 19307,
  "gVertices": [
    {
      "lstAPs": [
        {
          "id": 518903,
          "atomPositionNumber": 0,
          "atomPositionNumberInMol": 0,
          "apClass": {
            "rule": "Xlig",
            "subClass": 0,
            "bndTyp": "SINGLE"
          },
          "dirVec": {
            "x": -2.3339,
            "y": -0.0087,
            "z": 0.8172
          }
        },
        {
          "id": 518904,
          "atomPositionNumber": 0,
          "atomPositionNumberInMol": 0,
          "apClass": {
            "rule": "Xlig",
            "subClass": 0,
            "bndTyp": "SINGLE"
          },
          "dirVec": {
            "x": 2.336,
            "y": -5.0E-4,
            "z": 0.829
          }
        },
        {
          "id": 518905,
          "atomPositionNumber": 0,
          "atomPositionNumberInMol": 0,
          "apClass": {
            "rule": "scaff",
            "subClass": 0,
            "bndTyp": "SINGLE"
          },
          "dirVec": {
            "x": -0.0095,
            "y": 0.0046,
            "z": -1.7113
          }
        }
      ],
      "lstSymAPs": [
        {
          "symIds": [
            0,
            1
          ]
        }
      ],
      "mol": {
        "atoms": [
          {
            "elSymbol": "Pt",
            "p3d": {
              "x": -0.0098,
              "y": 0.0049,
              "z": 0.6289
            }
          },
          {
            "elSymbol": "C",
            "p3d": {
              "x": -6.0E-4,
              "y": 0.0016,
              "z": 2.5609
            }
          },
          {
            "elSymbol": "O",
            "p3d": {
              "x": 0.0025,
              "y": -0.0041,
              "z": 3.6974
            }
          },
          {
            "elSymbol": "Du",
            "p3d": {
              "x": -0.007,
              "y": 1.0013,
              "z": 0.6372
            }
          },
          {
            "elSymbol": "Du",
            "p3d": {
              "x": -0.0014,
              "y": 0.9902,
              "z": 2.5698
            }
          }
        ],
        "bonds": [
          {
            "atomIds": [
              1,
              2
            ],
            "bo": "TRIPLE"
          },
          {
            "atomIds": [
              0,
              1
            ],
            "bo": "SINGLE"
          },
          {
            "atomIds": [
              3,
              0
            ],
            "bo": "SINGLE"
          },
          {
            "atomIds": [
              4,
              1
            ],
            "bo": "SINGLE"
          }
        ]
      },
      "vertexId": 72,
      "buildingBlockId": 0,
      "buildingBlockType": "SCAFFOLD",
      "isRCV": false,
      "properties": {
        "ATTACHMENT_POINTS": "1#Xlig:0:SINGLE:-2.3339%-0.0087%0.8172,Xlig:0:SINGLE:2.3360%-0.0005%0.8290,scaff:0:SINGLE:-0.0095%0.0046%-1.7113 "
      },
      "uniquefyingPropertyKeys": [],
      "allowedMutationTypes": [
        "DELETE",
        "EXTEND",
        "CHANGEBRANCH",
        "CHANGELINK",
        "ADDLINK",
        "DELETELINK",
        "DELETECHAIN"
      ],
      "vertexType": "MolecularFragment"
    },
    {
      "lstAPs": [
        {
          "id": 518906,
          "atomPositionNumber": 0,
          "atomPositionNumberInMol": 5,
          "apClass": {
            "rule": "Xlig",
            "subClass": 1,
            "bndTyp": "SINGLE"
          },
          "dirVec": {
            "x": 0.0192,
            "y": -0.0048,
            "z": -0.5645
          }
        }
      ],
      "lstSymAPs": [],
      "mol": {
        "atoms": [
          {
            "elSymbol": "C",
            "p3d": {
              "x": -1.967,
              "y": -0.0075,
              "z": -0.4937
            }
          },
          {
            "elSymbol": "N",
            "p3d": {
              "x": -3.1263,
              "y": -0.0054,
              "z": -0.4354
            }
          },
          {
            "elSymbol": "Du",
            "p3d": {
              "x": -1.9744,
              "y": 0.9926,
              "z": -0.5036
            }
          }
        ],
        "bonds": [
          {
            "atomIds": [
              0,
              1
            ],
            "bo": "TRIPLE"
          },
          {
            "atomIds": [
              2,
              0
            ],
            "bo": "SINGLE"
          }
        ]
      },
      "vertexId": 81,
      "buildingBlockId": 65,
      "buildingBlockType": "FRAGMENT",
      "isRCV": false,
      "properties": {
        "ATTACHMENT_POINTS": "1#Xlig:1:SINGLE:0.0192%-0.0048%-0.5645 "
      },
      "uniquefyingPropertyKeys": [],
      "allowedMutationTypes": [
        "DELETE",
        "EXTEND",
        "CHANGEBRANCH",
        "CHANGELINK",
        "ADDLINK",
        "DELETELINK",
        "DELETECHAIN"
      ],
      "vertexType": "MolecularFragment"
    },
    {
      "lstAPs": [
        {
          "id": 518907,
          "atomPositionNumber": 0,
          "atomPositionNumberInMol": 8,
          "apClass": {
            "rule": "LPhosphiniteSubO",
            "subClass": 0,
            "bndTyp": "SINGLE"
          },
          "dirVec": {
            "x": 7.6619,
            "y": 4.8954,
            "z": 6.0599
          }
        },
        {
          "id": 518908,
          "atomPositionNumber": 0,
          "atomPositionNumberInMol": 8,
          "apClass": {
            "rule": "LPhosphiniteSubR",
            "subClass": 0,
            "bndTyp": "SINGLE"
          },
          "dirVec": {
            "x": 5.2032,
            "y": 3.9742,
            "z": 6.7915
          }
        },
        {
          "id": 518909,
          "atomPositionNumber": 0,
          "atomPositionNumberInMol": 8,
          "apClass": {
            "rule": "LPhosphiniteSubR",
            "subClass": 0,
            "bndTyp": "SINGLE"
          },
          "dirVec": {
            "x": 5.5408,
            "y": 5.7995,
            "z": 4.6157
          }
        },
        {
          "id": 518910,
          "atomPositionNumber": 0,
          "atomPositionNumberInMol": 8,
          "apClass": {
            "rule": "MPhosphinite",
            "subClass": 1,
            "bndTyp": "SINGLE"
          },
          "dirVec": {
            "x": 6.7665,
            "y": 2.684,
            "z": 3.9076
          }
        }
      ],
      "lstSymAPs": [
        {
          "symIds": [
            1,
            2
          ]
        }
      ],
      "mol": {
        "atoms": [
          {
            "elSymbol": "P",
            "p3d": {
              "x": 6.2956,
              "y": 4.3598,
              "z": 5.4081
            }
          }
        ],
        "bonds": []
      },
      "vertexId": 109,
      "buildingBlockId": 46,
      "buildingBlockType": "FRAGMENT",
      "isRCV": false,
      "properties": {
        "ATTACHMENT_POINTS": "1#LPhosphiniteSubO:0:SINGLE:7.6619%4.8954%6.0599,LPhosphiniteSubR:0:SINGLE:5.2032%3.9742%6.7915,LPhosphiniteSubR:0:SINGLE:5.5408%5.7995%4.6157,MPhosphinite:1:SINGLE:6.7665%2.6840%3.9076 "
      },
      "uniquefyingPropertyKeys": [],
      "allowedMutationTypes": [
        "DELETE",
        "EXTEND",
        "CHANGEBRANCH",
        "CHANGELINK",
        "ADDLINK",
        "DELETELINK",
        "DELETECHAIN"
      ],
      "vertexType": "MolecularFragment"
    },
    {
      "lstAPs": [
        {
          "id": 518911,
          "atomPositionNumber": 0,
          "atomPositionNumberInMol": 46,
          "apClass": {
            "rule": "Xlig",
            "subClass": 1,
            "bndTyp": "SINGLE"
          },
          "dirVec": {
            "x": 0.0192,
            "y": -0.0048,
            "z": -0.5645
          }
        }
      ],
      "lstSymAPs": [],
      "mol": {
        "atoms": [
          {
            "elSymbol": "C",
            "p3d": {
              "x": -1.967,
              "y": -0.0075,
              "z": -0.4937
            }
          },
          {
            "elSymbol": "N",
            "p3d": {
              "x": -3.1263,
              "y": -0.0054,
              "z": -0.4354
            }
          },
          {
            "elSymbol": "Du",
            "p3d": {
              "x": -1.9744,
              "y": 0.9926,
              "z": -0.5036
            }
          }
        ],
        "bonds": [
          {
            "atomIds": [
              0,
              1
            ],
            "bo": "TRIPLE"
          },
          {
            "atomIds": [
              2,
              0
            ],
            "bo": "SINGLE"
          }
        ]
      },
      "vertexId": 87,
      "buildingBlockId": 65,
      "buildingBlockType": "FRAGMENT",
      "isRCV": false,
      "properties": {
        "ATTACHMENT_POINTS": "1#Xlig:1:SINGLE:0.0192%-0.0048%-0.5645 "
      },
      "uniquefyingPropertyKeys": [],
      "allowedMutationTypes": [
        "DELETE",
        "EXTEND",
        "CHANGEBRANCH",
        "CHANGELINK",
        "ADDLINK",
        "DELETELINK",
        "DELETECHAIN"
      ],
      "vertexType": "MolecularFragment"
    },
    {
      "lstAPs": [
        {
          "id": 518912,
          "atomPositionNumber": 0,
          "atomPositionNumberInMol": 9,
          "apClass": {
            "rule": "SubRL",
            "subClass": 1,
            "bndTyp": "SINGLE"
          },
          "dirVec": {
            "x": 0.2857,
            "y": 0.39,
            "z": -0.6426
          }
        }
      ],
      "lstSymAPs": [],
      "mol": {
        "atoms": [
          {
            "elSymbol": "C",
            "p3d": {
              "x": 0.3842,
              "y": -0.0523,
              "z": 0.8329
            }
          },
          {
            "elSymbol": "C",
            "p3d": {
              "x": -0.6709,
              "y": 0.6882,
              "z": 1.6615
            }
          },
          {
            "elSymbol": "C",
            "p3d": {
              "x": 0.1554,
              "y": -1.558,
              "z": 0.9277
            }
          },
          {
            "elSymbol": "C",
            "p3d": {
              "x": 1.7886,
              "y": 0.2826,
              "z": 1.3761
            }
          },
          {
            "elSymbol": "H",
            "p3d": {
              "x": -0.5899,
              "y": 0.3841,
              "z": 2.6969
            }
          },
          {
            "elSymbol": "H",
            "p3d": {
              "x": 1.8617,
              "y": -0.0274,
              "z": 2.4067
            }
          },
          {
            "elSymbol": "H",
            "p3d": {
              "x": 0.2289,
              "y": -1.8635,
              "z": 1.9737
            }
          },
          {
            "elSymbol": "H",
            "p3d": {
              "x": 0.8983,
              "y": -2.0943,
              "z": 0.3332
            }
          },
          {
            "elSymbol": "H",
            "p3d": {
              "x": 2.5395,
              "y": -0.2409,
              "z": 0.7751
            }
          },
          {
            "elSymbol": "H",
            "p3d": {
              "x": 1.9553,
              "y": 1.3543,
              "z": 1.294
            }
          },
          {
            "elSymbol": "H",
            "p3d": {
              "x": -0.4937,
              "y": 1.7723,
              "z": 1.5856
            }
          },
          {
            "elSymbol": "H",
            "p3d": {
              "x": -1.6541,
              "y": 0.4601,
              "z": 1.2602
            }
          },
          {
            "elSymbol": "H",
            "p3d": {
              "x": -0.8514,
              "y": -1.792,
              "z": 0.5518
            }
          }
        ],
        "bonds": [
          {
            "atomIds": [
              0,
              1
            ],
            "bo": "SINGLE"
          },
          {
            "atomIds": [
              0,
              2
            ],
            "bo": "SINGLE"
          },
          {
            "atomIds": [
              0,
              3
            ],
            "bo": "SINGLE"
          },
          {
            "atomIds": [
              1,
              4
            ],
            "bo": "SINGLE"
          },
          {
            "atomIds": [
              3,
              5
            ],
            "bo": "SINGLE"
          },
          {
            "atomIds": [
              2,
              6
            ],
            "bo": "SINGLE"
          },
          {
            "atomIds": [
              2,
              7
            ],
            "bo": "SINGLE"
          },
          {
            "atomIds": [
              3,
              8
            ],
            "bo": "SINGLE"
          },
          {
            "atomIds": [
              3,
              9
            ],
            "bo": "SINGLE"
          },
          {
            "atomIds": [
              1,
              10
            ],
            "bo": "SINGLE"
          },
          {
            "atomIds": [
              1,
              11
            ],
            "bo": "SINGLE"
          },
          {
            "atomIds": [
              2,
              12
            ],
            "bo": "SINGLE"
          }
        ]
      },
      "vertexId": 210345,
      "buildingBlockId": 33,
      "buildingBlockType": "FRAGMENT",
      "isRCV": false,
      "properties": {
        "ATTACHMENT_POINTS": "1#SubRL:1:SINGLE:0.2857%0.3900%-0.6426 "
      },
      "uniquefyingPropertyKeys": [],
      "allowedMutationTypes": [
        "DELETE",
        "EXTEND",
        "CHANGEBRANCH",
        "CHANGELINK",
        "ADDLINK",
        "DELETELINK",
        "DELETECHAIN"
      ],
      "vertexType": "MolecularFragment"
    },
    {
      "lstAPs": [
        {
          "id": 518913,
          "atomPositionNumber": 0,
          "atomPositionNumberInMol": 22,
          "apClass": {
            "rule": "LPhosphiniteSubO",
            "subClass": 1,
            "bndTyp": "SINGLE"
          },
          "dirVec": {
            "x": -3.8355,
            "y": 7.5392,
            "z": 4.6611
          }
        },
        {
          "id": 518914,
          "atomPositionNumber": 0,
          "atomPositionNumberInMol": 22,
          "apClass": {
            "rule": "OPhosphiniteSub",
            "subClass": 1,
            "bndTyp": "SINGLE"
          },
          "dirVec": {
            "x": -3.5459,
            "y": 7.828,
            "z": 2.0236
          }
        }
      ],
      "lstSymAPs": [],
      "mol": {
        "atoms": [
          {
            "elSymbol": "O",
            "p3d": {
              "x": -4.0711,
              "y": 7.164,
              "z": 3.1009
            }
          }
        ],
        "bonds": []
      },
      "vertexId": 210261,
      "buildingBlockId": 47,
      "buildingBlockType": "FRAGMENT",
      "isRCV": false,
      "properties": {
        "ATTACHMENT_POINTS": "1#LPhosphiniteSubO:1:SINGLE:-3.8355%7.5392%4.6611,OPhosphiniteSub:1:SINGLE:-3.5459%7.8280%2.0236 "
      },
      "uniquefyingPropertyKeys": [],
      "allowedMutationTypes": [
        "DELETE",
        "EXTEND",
        "CHANGEBRANCH",
        "CHANGELINK",
        "ADDLINK",
        "DELETELINK",
        "DELETECHAIN"
      ],
      "vertexType": "MolecularFragment"
    },
    {
      "lstAPs": [
        {
          "id": 518915,
          "atomPositionNumber": 0,
          "atomPositionNumberInMol": 33,
          "apClass": {
            "rule": "SubRL",
            "subClass": 1,
            "bndTyp": "SINGLE"
          },
          "dirVec": {
            "x": 0.2857,
            "y": 0.39,
            "z": -0.6426
          }
        }
      ],
      "lstSymAPs": [],
      "mol": {
        "atoms": [
          {
            "elSymbol": "C",
            "p3d": {
              "x": 0.3842,
              "y": -0.0523,
              "z": 0.8329
            }
          },
          {
            "elSymbol": "C",
            "p3d": {
              "x": -0.6709,
              "y": 0.6882,
              "z": 1.6615
            }
          },
          {
            "elSymbol": "C",
            "p3d": {
              "x": 0.1554,
              "y": -1.558,
              "z": 0.9277
            }
          },
          {
            "elSymbol": "C",
            "p3d": {
              "x": 1.7886,
              "y": 0.2826,
              "z": 1.3761
            }
          },
          {
            "elSymbol": "H",
            "p3d": {
              "x": -0.5899,
              "y": 0.3841,
              "z": 2.6969
            }
          },
          {
            "elSymbol": "H",
            "p3d": {
              "x": 1.8617,
              "y": -0.0274,
              "z": 2.4067
            }
          },
          {
            "elSymbol": "H",
            "p3d": {
              "x": 0.2289,
              "y": -1.8635,
              "z": 1.9737
            }
          },
          {
            "elSymbol": "H",
            "p3d": {
              "x": 0.8983,
              "y": -2.0943,
              "z": 0.3332
            }
          },
          {
            "elSymbol": "H",
            "p3d": {
              "x": 2.5395,
              "y": -0.2409,
              "z": 0.7751
            }
          },
          {
            "elSymbol": "H",
            "p3d": {
              "x": 1.9553,
              "y": 1.3543,
              "z": 1.294
            }
          },
          {
            "elSymbol": "H",
            "p3d": {
              "x": -0.4937,
              "y": 1.7723,
              "z": 1.5856
            }
          },
          {
            "elSymbol": "H",
            "p3d": {
              "x": -1.6541,
              "y": 0.4601,
              "z": 1.2602
            }
          },
          {
            "elSymbol": "H",
            "p3d": {
              "x": -0.8514,
              "y": -1.792,
              "z": 0.5518
            }
          }
        ],
        "bonds": [
          {
            "atomIds": [
              0,
              1
            ],
            "bo": "SINGLE"
          },
          {
            "atomIds": [
              0,
              2
            ],
            "bo": "SINGLE"
          },
          {
            "atomIds": [
              0,
              3
            ],
            "bo": "SINGLE"
          },
          {
            "atomIds": [
              1,
              4
            ],
            "bo": "SINGLE"
          },
          {
            "atomIds": [
              3,
              5
            ],
            "bo": "SINGLE"
          },
          {
            "atomIds": [
              2,
              6
            ],
            "bo": "SINGLE"
          },
          {
            "atomIds": [
              2,
              7
            ],
            "bo": "SINGLE"
          },
          {
            "atomIds": [
              3,
              8
            ],
            "bo": "SINGLE"
          },
          {
            "atomIds": [
              3,
              9
            ],
            "bo": "SINGLE"
          },
          {
            "atomIds": [
              1,
              10
            ],
            "bo": "SINGLE"
          },
          {
            "atomIds": [
              1,
              11
            ],
            "bo": "SINGLE"
          },
          {
            "atomIds": [
              2,
              12
            ],
            "bo": "SINGLE"
          }
        ]
      },
      "vertexId": 210268,
      "buildingBlockId": 33,
      "buildingBlockType": "FRAGMENT",
      "isRCV": false,
      "properties": {
        "ATTACHMENT_POINTS": "1#SubRL:1:SINGLE:0.2857%0.3900%-0.6426 "
      },
      "uniquefyingPropertyKeys": [],
      "allowedMutationTypes": [
        "DELETE",
        "EXTEND",
        "CHANGEBRANCH",
        "CHANGELINK",
        "ADDLINK",
        "DELETELINK",
        "DELETECHAIN"
      ],
      "vertexType": "MolecularFragment"
    },
    {
      "lstAPs": [
        {
          "id": 518958,
          "atomPositionNumber": 1,
          "atomPositionNumberInMol": 24,
          "apClass": {
            "rule": "SubRM",
            "subClass": 1,
            "bndTyp": "SINGLE"
          },
          "dirVec": {
            "x": 0.2868,
            "y": 0.385,
            "z": -0.643
          }
        }
      ],
      "lstSymAPs": [],
      "mol": {
        "atoms": [
          {
            "elSymbol": "C",
            "p3d": {
              "x": 1.141,
              "y": 1.0262,
              "z": 1.6347
            }
          },
          {
            "elSymbol": "C",
            "p3d": {
              "x": 0.3967,
              "y": -0.0479,
              "z": 0.8227
            }
          },
          {
            "elSymbol": "C",
            "p3d": {
              "x": 1.1459,
              "y": -1.371,
              "z": 0.9201
            }
          },
          {
            "elSymbol": "H",
            "p3d": {
              "x": 2.1461,
              "y": -1.2583,
              "z": 0.4976
            }
          },
          {
            "elSymbol": "H",
            "p3d": {
              "x": 0.6013,
              "y": -2.1408,
              "z": 0.3461
            }
          },
          {
            "elSymbol": "H",
            "p3d": {
              "x": 1.2113,
              "y": -1.6946,
              "z": 1.9559
            }
          },
          {
            "elSymbol": "H",
            "p3d": {
              "x": 2.1541,
              "y": 1.1435,
              "z": 1.2119
            }
          },
          {
            "elSymbol": "H",
            "p3d": {
              "x": 0.6143,
              "y": 1.976,
              "z": 1.5626
            }
          },
          {
            "elSymbol": "H",
            "p3d": {
              "x": 1.2058,
              "y": 0.7088,
              "z": 2.6868
            }
          },
          {
            "elSymbol": "H",
            "p3d": {
              "x": -0.6215,
              "y": -0.1789,
              "z": 1.2377
            }
          }
        ],
        "bonds": [
          {
            "atomIds": [
              0,
              1
            ],
            "bo": "SINGLE"
          },
          {
            "atomIds": [
              1,
              2
            ],
            "bo": "SINGLE"
          },
          {
            "atomIds": [
              2,
              3
            ],
            "bo": "SINGLE"
          },
          {
            "atomIds": [
              2,
              4
            ],
            "bo": "SINGLE"
          },
          {
            "atomIds": [
              2,
              5
            ],
            "bo": "SINGLE"
          },
          {
            "atomIds": [
              0,
              6
            ],
            "bo": "SINGLE"
          },
          {
            "atomIds": [
              0,
              7
            ],
            "bo": "SINGLE"
          },
          {
            "atomIds": [
              0,
              8
            ],
            "bo": "SINGLE"
          },
          {
            "atomIds": [
              1,
              9
            ],
            "bo": "SINGLE"
          }
        ]
      },
      "vertexId": 400841,
      "buildingBlockId": 32,
      "buildingBlockType": "FRAGMENT",
      "isRCV": false,
      "properties": {
        "ATTACHMENT_POINTS": "2#SubRM:1:SINGLE:0.2868%0.3850%-0.6430 "
      },
      "uniquefyingPropertyKeys": [],
      "allowedMutationTypes": [
        "DELETE",
        "EXTEND",
        "CHANGEBRANCH",
        "CHANGELINK",
        "ADDLINK",
        "DELETELINK",
        "DELETECHAIN"
      ],
      "vertexType": "MolecularFragment"
    }
  ],
  "gEdges": [
    {
      "srcAPID": 518903,
      "trgAPID": 518906,
      "bondType": "SINGLE"
    },
    {
      "srcAPID": 518905,
      "trgAPID": 518910,
      "bondType": "SINGLE"
    },
    {
      "srcAPID": 518904,
      "trgAPID": 518911,
      "bondType": "SINGLE"
    },
    {
      "srcAPID": 518909,
      "trgAPID": 518912,
      "bondType": "SINGLE"
    },
    {
      "srcAPID": 518907,
      "trgAPID": 518913,
      "bondType": "SINGLE"
    },
    {
      "srcAPID": 518908,
      "trgAPID": 518915,
      "bondType": "SINGLE"
    },
    {
      "srcAPID": 518914,
      "trgAPID": 518958,
      "bondType": "SINGLE"
    }
  ],
  "gRings": [],
  "symVertices": [
    {
      "symIds": [
        210345,
        210268
      ]
    }
  ]
}

> <SMILES>
[Pt](C#O)(C#N)([P](C(C([H])([H])[H])(C([H])([H])[H])C([H])([H])[H])(OC(C([H])([H])[H])(C([H])([H])[H])[H])C(C([H])([H])[H])(C([H])([H])[H])C([H])([H])[H])C#N

$$$$
