M00006470
  CDK     04222211023D

 33 33  0  0  0  0  0  0  0  0999 V2000
    2.9380   -0.3784   -0.3304 Pt  0  0  0  0  0  0  0  0  0  0  0  0
    4.8637   -0.3769   -0.3601 C   0  0  0  0  0  0  0  0  0  0  0  0
    6.0067   -0.3629   -0.3400 O   0  0  0  0  0  0  0  0  0  0  0  0
    2.8087   -1.3451   -2.0815 C   0  0  0  0  0  0  0  0  0  0  0  0
    2.7130   -1.8910   -3.0958 N   0  0  0  0  0  0  0  0  0  0  0  0
    0.0337   -0.7407   -1.1454 N   0  0  0  0  0  0  0  0  0  0  0  0
    0.9160   -0.3414   -0.1806 C   0  0  1  0  0  0  0  0  0  0  0  0
    0.2334    0.0759    0.9205 N   0  0  0  0  0  0  0  0  0  0  0  0
   -1.2554   -0.0200    0.7454 C   0  0  1  0  0  0  0  0  0  0  0  0
   -1.3965   -0.6097   -0.7053 C   0  0  1  0  0  0  0  0  0  0  0  0
   -1.6862    1.0113    0.8070 H   0  0  0  0  0  0  0  0  0  0  0  0
   -1.8555   -1.6307   -0.6849 H   0  0  0  0  0  0  0  0  0  0  0  0
    0.2790   -1.0878   -2.0669 H   0  0  0  0  0  0  0  0  0  0  0  0
   -1.9247   -0.2555    3.1831 C   0  0  0  0  0  0  0  0  0  0  0  0
   -1.8924   -0.9206    1.8120 C   0  0  0  0  0  0  0  0  0  0  0  0
   -2.4601    0.7011    3.1679 H   0  0  0  0  0  0  0  0  0  0  0  0
   -2.4312   -0.8965    3.9175 H   0  0  0  0  0  0  0  0  0  0  0  0
   -0.9174   -0.0654    3.5743 H   0  0  0  0  0  0  0  0  0  0  0  0
   -1.3476   -1.8863    1.8764 H   0  0  0  0  0  0  0  0  0  0  0  0
   -2.9256   -1.1787    1.4997 H   0  0  0  0  0  0  0  0  0  0  0  0
   -2.4882   -0.3543   -2.9829 C   0  0  0  0  0  0  0  0  0  0  0  0
   -2.1953    0.3069   -1.6412 C   0  0  0  0  0  0  0  0  0  0  0  0
   -3.0294   -1.3013   -2.8697 H   0  0  0  0  0  0  0  0  0  0  0  0
   -3.1079    0.2966   -3.6143 H   0  0  0  0  0  0  0  0  0  0  0  0
   -1.5731   -0.5637   -3.5511 H   0  0  0  0  0  0  0  0  0  0  0  0
   -1.6518    1.2612   -1.8038 H   0  0  0  0  0  0  0  0  0  0  0  0
   -3.1503    0.5849   -1.1483 H   0  0  0  0  0  0  0  0  0  0  0  0
    0.6600    0.4161    1.7854 H   0  0  0  0  0  0  0  0  0  0  0  0
    3.1184    0.7540    1.6965 S   0  0  0  0  0  0  0  0  0  0  0  0
    3.1702    2.4337    1.0058 C   0  0  0  0  0  0  0  0  0  0  0  0
    2.4490    3.0703    1.5291 H   0  0  0  0  0  0  0  0  0  0  0  0
    2.9297    2.4325   -0.0633 H   0  0  0  0  0  0  0  0  0  0  0  0
    4.1692    2.8626    1.1448 H   0  0  0  0  0  0  0  0  0  0  0  0
  2  3  3  0  0  0  0
  1  2  1  0  0  0  0
  4  5  3  0  0  0  0
  1  4  1  0  0  0  0
  6  7  1  0  0  0  0
  8  7  1  0  0  0  0
  9  8  1  0  0  0  0
  9 10  1  0  0  0  0
 10  6  1  0  0  0  0
 11  9  1  0  0  0  0
 12 10  1  0  0  0  0
  1  7  1  0  0  0  0
  6 13  1  0  0  0  0
 14 15  1  0  0  0  0
 14 16  1  0  0  0  0
 14 17  1  0  0  0  0
 14 18  1  0  0  0  0
 15 19  1  0  0  0  0
 15 20  1  0  0  0  0
  9 15  1  0  0  0  0
 21 22  1  0  0  0  0
 21 23  1  0  0  0  0
 21 24  1  0  0  0  0
 21 25  1  0  0  0  0
 22 26  1  0  0  0  0
 22 27  1  0  0  0  0
 10 22  1  0  0  0  0
  8 28  1  0  0  0  0
 30 31  1  0  0  0  0
 30 32  1  0  0  0  0
 30 33  1  0  0  0  0
 29 30  1  0  0  0  0
  1 29  1  0  0  0  0
M  END
> <PM6_ENERGY>
2.546

> <UID>
DBGCOFBHAIWNOH-KXEFKGLVNA-M

> <FITNESS>
1.14326

> <GCODE>
7300

> <GraphENC>
7300 72_1_0,81_66_1,94_16_1,85_64_1,145742_1_2,145746_32_1,147157_32_1,147156_1_2, 72_0_81_0_SINGLE_Xlig:0_Xlig:1,72_2_94_1_SINGLE_scaff:0_MImidazolidinylidene:1,72_1_85_0_SINGLE_Xlig:0_Xlig:1,94_0_145742_0_SINGLE_LImidazolidinylideneSubNL:0_hyd:1,94_3_145746_0_SINGLE_LImidazolidinylideneSubCL:0_SubRS:1,94_4_147157_0_SINGLE_LImidazolidinylideneSubCL:0_SubRS:1,94_2_147156_0_SINGLE_LImidazolidinylideneSubNL:0_hyd:1, SymmetricSet [symIds=[145742, 147156]] SymmetricSet [symIds=[145746, 147157]] 

> <GraphJson>
{
  "graphId": 7300,
  "gVertices": [
    {
      "lstAPs": [
        {
          "id": 192648,
          "atomPositionNumber": 0,
          "atomPositionNumberInMol": 0,
          "apClass": {
            "rule": "Xlig",
            "subClass": 0,
            "bndTyp": "SINGLE"
          },
          "dirVec": {
            "x": -2.3339,
            "y": -0.0087,
            "z": 0.8172
          }
        },
        {
          "id": 192649,
          "atomPositionNumber": 0,
          "atomPositionNumberInMol": 0,
          "apClass": {
            "rule": "Xlig",
            "subClass": 0,
            "bndTyp": "SINGLE"
          },
          "dirVec": {
            "x": 2.336,
            "y": -5.0E-4,
            "z": 0.829
          }
        },
        {
          "id": 192650,
          "atomPositionNumber": 0,
          "atomPositionNumberInMol": 0,
          "apClass": {
            "rule": "scaff",
            "subClass": 0,
            "bndTyp": "SINGLE"
          },
          "dirVec": {
            "x": -0.0095,
            "y": 0.0046,
            "z": -1.7113
          }
        }
      ],
      "lstSymAPs": [
        {
          "symIds": [
            0,
            1
          ]
        }
      ],
      "mol": {
        "atoms": [
          {
            "elSymbol": "Pt",
            "p3d": {
              "x": -0.0098,
              "y": 0.0049,
              "z": 0.6289
            }
          },
          {
            "elSymbol": "C",
            "p3d": {
              "x": -6.0E-4,
              "y": 0.0016,
              "z": 2.5609
            }
          },
          {
            "elSymbol": "O",
            "p3d": {
              "x": 0.0025,
              "y": -0.0041,
              "z": 3.6974
            }
          },
          {
            "elSymbol": "Du",
            "p3d": {
              "x": -0.007,
              "y": 1.0013,
              "z": 0.6372
            }
          },
          {
            "elSymbol": "Du",
            "p3d": {
              "x": -0.0014,
              "y": 0.9902,
              "z": 2.5698
            }
          }
        ],
        "bonds": [
          {
            "atomIds": [
              1,
              2
            ],
            "bo": "TRIPLE"
          },
          {
            "atomIds": [
              0,
              1
            ],
            "bo": "SINGLE"
          },
          {
            "atomIds": [
              3,
              0
            ],
            "bo": "SINGLE"
          },
          {
            "atomIds": [
              4,
              1
            ],
            "bo": "SINGLE"
          }
        ]
      },
      "vertexId": 72,
      "buildingBlockId": 0,
      "buildingBlockType": "SCAFFOLD",
      "isRCV": false,
      "properties": {
        "ATTACHMENT_POINTS": "1#Xlig:0:SINGLE:-2.3339%-0.0087%0.8172,Xlig:0:SINGLE:2.3360%-0.0005%0.8290,scaff:0:SINGLE:-0.0095%0.0046%-1.7113 "
      },
      "uniquefyingPropertyKeys": [],
      "allowedMutationTypes": [
        "DELETE",
        "EXTEND",
        "CHANGEBRANCH",
        "CHANGELINK",
        "ADDLINK",
        "DELETELINK",
        "DELETECHAIN"
      ],
      "vertexType": "MolecularFragment"
    },
    {
      "lstAPs": [
        {
          "id": 192651,
          "atomPositionNumber": 0,
          "atomPositionNumberInMol": 5,
          "apClass": {
            "rule": "Xlig",
            "subClass": 1,
            "bndTyp": "SINGLE"
          },
          "dirVec": {
            "x": 0.0192,
            "y": -0.0048,
            "z": -0.5645
          }
        }
      ],
      "lstSymAPs": [],
      "mol": {
        "atoms": [
          {
            "elSymbol": "C",
            "p3d": {
              "x": -1.967,
              "y": -0.0075,
              "z": -0.4937
            }
          },
          {
            "elSymbol": "N",
            "p3d": {
              "x": -3.1263,
              "y": -0.0054,
              "z": -0.4354
            }
          },
          {
            "elSymbol": "Du",
            "p3d": {
              "x": -1.9744,
              "y": 0.9926,
              "z": -0.5036
            }
          }
        ],
        "bonds": [
          {
            "atomIds": [
              0,
              1
            ],
            "bo": "TRIPLE"
          },
          {
            "atomIds": [
              2,
              0
            ],
            "bo": "SINGLE"
          }
        ]
      },
      "vertexId": 81,
      "buildingBlockId": 65,
      "buildingBlockType": "FRAGMENT",
      "isRCV": false,
      "properties": {
        "ATTACHMENT_POINTS": "1#Xlig:1:SINGLE:0.0192%-0.0048%-0.5645 "
      },
      "uniquefyingPropertyKeys": [],
      "allowedMutationTypes": [
        "DELETE",
        "EXTEND",
        "CHANGEBRANCH",
        "CHANGELINK",
        "ADDLINK",
        "DELETELINK",
        "DELETECHAIN"
      ],
      "vertexType": "MolecularFragment"
    },
    {
      "lstAPs": [
        {
          "id": 192652,
          "atomPositionNumber": 0,
          "atomPositionNumberInMol": 8,
          "apClass": {
            "rule": "LImidazolidinylideneSubNL",
            "subClass": 0,
            "bndTyp": "SINGLE"
          },
          "dirVec": {
            "x": 1.1053,
            "y": -4.2806,
            "z": -0.0746
          }
        },
        {
          "id": 192653,
          "atomPositionNumber": 1,
          "atomPositionNumberInMol": 9,
          "apClass": {
            "rule": "MImidazolidinylidene",
            "subClass": 1,
            "bndTyp": "SINGLE"
          },
          "dirVec": {
            "x": 0.0066,
            "y": -1.1634,
            "z": -0.2139
          }
        },
        {
          "id": 192654,
          "atomPositionNumber": 2,
          "atomPositionNumberInMol": 10,
          "apClass": {
            "rule": "LImidazolidinylideneSubNL",
            "subClass": 0,
            "bndTyp": "SINGLE"
          },
          "dirVec": {
            "x": -0.4116,
            "y": -1.1759,
            "z": -3.5324
          }
        },
        {
          "id": 192655,
          "atomPositionNumber": 3,
          "atomPositionNumberInMol": 11,
          "apClass": {
            "rule": "LImidazolidinylideneSubCL",
            "subClass": 0,
            "bndTyp": "SINGLE"
          },
          "dirVec": {
            "x": -1.1896,
            "y": -4.3794,
            "z": -4.1809
          }
        },
        {
          "id": 192656,
          "atomPositionNumber": 4,
          "atomPositionNumberInMol": 12,
          "apClass": {
            "rule": "LImidazolidinylideneSubCL",
            "subClass": 0,
            "bndTyp": "SINGLE"
          },
          "dirVec": {
            "x": 2.4239,
            "y": -4.9262,
            "z": -3.0604
          }
        }
      ],
      "lstSymAPs": [
        {
          "symIds": [
            0,
            2
          ]
        },
        {
          "symIds": [
            3,
            4
          ]
        }
      ],
      "mol": {
        "atoms": [
          {
            "elSymbol": "N",
            "p3d": {
              "x": 0.8214,
              "y": -3.7977,
              "z": -1.429
            }
          },
          {
            "elSymbol": "C",
            "p3d": {
              "x": 0.3058,
              "y": -2.5822,
              "z": -1.663
            }
          },
          {
            "elSymbol": "N",
            "p3d": {
              "x": -0.0048,
              "y": -2.4602,
              "z": -2.9405
            }
          },
          {
            "elSymbol": "C",
            "p3d": {
              "x": 0.1672,
              "y": -3.7242,
              "z": -3.6717
            }
          },
          {
            "elSymbol": "C",
            "p3d": {
              "x": 0.9512,
              "y": -4.5908,
              "z": -2.682
            }
          },
          {
            "elSymbol": "H",
            "p3d": {
              "x": 0.6828,
              "y": -3.6212,
              "z": -4.6265
            }
          },
          {
            "elSymbol": "H",
            "p3d": {
              "x": 0.5478,
              "y": -5.6128,
              "z": -2.6141
            }
          }
        ],
        "bonds": [
          {
            "atomIds": [
              0,
              1
            ],
            "bo": "SINGLE"
          },
          {
            "atomIds": [
              2,
              1
            ],
            "bo": "SINGLE"
          },
          {
            "atomIds": [
              3,
              2
            ],
            "bo": "SINGLE"
          },
          {
            "atomIds": [
              3,
              4
            ],
            "bo": "SINGLE"
          },
          {
            "atomIds": [
              4,
              0
            ],
            "bo": "SINGLE"
          },
          {
            "atomIds": [
              5,
              3
            ],
            "bo": "SINGLE"
          },
          {
            "atomIds": [
              6,
              4
            ],
            "bo": "SINGLE"
          }
        ]
      },
      "vertexId": 94,
      "buildingBlockId": 15,
      "buildingBlockType": "FRAGMENT",
      "isRCV": false,
      "properties": {
        "ATTACHMENT_POINTS": "1#LImidazolidinylideneSubNL:0:SINGLE:1.1053%-4.2806%-0.0746 2#MImidazolidinylidene:1:SINGLE:0.0066%-1.1634%-0.2139 3#LImidazolidinylideneSubNL:0:SINGLE:-0.4116%-1.1759%-3.5324 4#LImidazolidinylideneSubCL:0:SINGLE:-1.1896%-4.3794%-4.1809 5#LImidazolidinylideneSubCL:0:SINGLE:2.4239%-4.9262%-3.0604 "
      },
      "uniquefyingPropertyKeys": [],
      "allowedMutationTypes": [
        "DELETE",
        "EXTEND",
        "CHANGEBRANCH",
        "CHANGELINK",
        "ADDLINK",
        "DELETELINK",
        "DELETECHAIN"
      ],
      "vertexType": "MolecularFragment"
    },
    {
      "lstAPs": [
        {
          "id": 192657,
          "atomPositionNumber": 0,
          "atomPositionNumberInMol": 31,
          "apClass": {
            "rule": "Xlig",
            "subClass": 1,
            "bndTyp": "SINGLE"
          },
          "dirVec": {
            "x": -0.102,
            "y": 0.0185,
            "z": -1.0265
          }
        }
      ],
      "lstSymAPs": [],
      "mol": {
        "atoms": [
          {
            "elSymbol": "S",
            "p3d": {
              "x": -0.3267,
              "y": 2.3403,
              "z": -1.0022
            }
          },
          {
            "elSymbol": "C",
            "p3d": {
              "x": -0.626,
              "y": 2.4866,
              "z": 0.7805
            }
          },
          {
            "elSymbol": "H",
            "p3d": {
              "x": 0.1766,
              "y": 3.089,
              "z": 1.2414
            }
          },
          {
            "elSymbol": "H",
            "p3d": {
              "x": -0.651,
              "y": 1.5065,
              "z": 1.2643
            }
          },
          {
            "elSymbol": "H",
            "p3d": {
              "x": -1.5658,
              "y": 2.981,
              "z": 0.9515
            }
          }
        ],
        "bonds": [
          {
            "atomIds": [
              1,
              2
            ],
            "bo": "SINGLE"
          },
          {
            "atomIds": [
              1,
              3
            ],
            "bo": "SINGLE"
          },
          {
            "atomIds": [
              1,
              4
            ],
            "bo": "SINGLE"
          },
          {
            "atomIds": [
              0,
              1
            ],
            "bo": "SINGLE"
          }
        ]
      },
      "vertexId": 85,
      "buildingBlockId": 63,
      "buildingBlockType": "FRAGMENT",
      "isRCV": false,
      "properties": {
        "ATTACHMENT_POINTS": "1#Xlig:1:SINGLE:-0.1020%0.0185%-1.0265 "
      },
      "uniquefyingPropertyKeys": [],
      "allowedMutationTypes": [
        "DELETE",
        "EXTEND",
        "CHANGEBRANCH",
        "CHANGELINK",
        "ADDLINK",
        "DELETELINK",
        "DELETECHAIN"
      ],
      "vertexType": "MolecularFragment"
    },
    {
      "lstAPs": [
        {
          "id": 192700,
          "atomPositionNumber": 0,
          "atomPositionNumberInMol": 15,
          "apClass": {
            "rule": "hyd",
            "subClass": 1,
            "bndTyp": "SINGLE"
          },
          "dirVec": {
            "x": 0.4589,
            "y": -1.751,
            "z": 0.3869
          }
        }
      ],
      "lstSymAPs": [],
      "mol": {
        "atoms": [
          {
            "elSymbol": "H",
            "p3d": {
              "x": 0.1925,
              "y": -2.5024,
              "z": 1.1483
            }
          }
        ],
        "bonds": []
      },
      "vertexId": 145742,
      "buildingBlockId": 0,
      "buildingBlockType": "CAP",
      "isRCV": false,
      "properties": {
        "ATTACHMENT_POINTS": "1#hyd:1:SINGLE:0.4589%-1.7510%0.3869 "
      },
      "uniquefyingPropertyKeys": [],
      "allowedMutationTypes": [
        "DELETE",
        "EXTEND",
        "CHANGEBRANCH",
        "CHANGELINK",
        "ADDLINK",
        "DELETELINK",
        "DELETECHAIN"
      ],
      "vertexType": "MolecularFragment"
    },
    {
      "lstAPs": [
        {
          "id": 192701,
          "atomPositionNumber": 1,
          "atomPositionNumberInMol": 17,
          "apClass": {
            "rule": "SubRS",
            "subClass": 1,
            "bndTyp": "SINGLE"
          },
          "dirVec": {
            "x": 0.2985,
            "y": 0.384,
            "z": -0.6258
          }
        }
      ],
      "lstSymAPs": [],
      "mol": {
        "atoms": [
          {
            "elSymbol": "C",
            "p3d": {
              "x": -1.0244,
              "y": -0.2225,
              "z": 1.3991
            }
          },
          {
            "elSymbol": "C",
            "p3d": {
              "x": 0.3973,
              "y": -0.042,
              "z": 0.8195
            }
          },
          {
            "elSymbol": "H",
            "p3d": {
              "x": -1.5635,
              "y": -0.9908,
              "z": 0.8263
            }
          },
          {
            "elSymbol": "H",
            "p3d": {
              "x": -0.941,
              "y": -0.535,
              "z": 2.446
            }
          },
          {
            "elSymbol": "H",
            "p3d": {
              "x": -1.5586,
              "y": 0.7335,
              "z": 1.3382
            }
          },
          {
            "elSymbol": "H",
            "p3d": {
              "x": 0.9335,
              "y": 0.7221,
              "z": 1.4011
            }
          },
          {
            "elSymbol": "H",
            "p3d": {
              "x": 0.927,
              "y": -1.0102,
              "z": 0.9001
            }
          }
        ],
        "bonds": [
          {
            "atomIds": [
              0,
              1
            ],
            "bo": "SINGLE"
          },
          {
            "atomIds": [
              0,
              2
            ],
            "bo": "SINGLE"
          },
          {
            "atomIds": [
              0,
              3
            ],
            "bo": "SINGLE"
          },
          {
            "atomIds": [
              0,
              4
            ],
            "bo": "SINGLE"
          },
          {
            "atomIds": [
              1,
              5
            ],
            "bo": "SINGLE"
          },
          {
            "atomIds": [
              1,
              6
            ],
            "bo": "SINGLE"
          }
        ]
      },
      "vertexId": 145746,
      "buildingBlockId": 31,
      "buildingBlockType": "FRAGMENT",
      "isRCV": false,
      "properties": {
        "ATTACHMENT_POINTS": "2#SubRS:1:SINGLE:0.2985%0.3840%-0.6258 "
      },
      "uniquefyingPropertyKeys": [],
      "allowedMutationTypes": [
        "DELETE",
        "EXTEND",
        "CHANGEBRANCH",
        "CHANGELINK",
        "ADDLINK",
        "DELETELINK",
        "DELETECHAIN"
      ],
      "vertexType": "MolecularFragment"
    },
    {
      "lstAPs": [
        {
          "id": 192702,
          "atomPositionNumber": 1,
          "atomPositionNumberInMol": 24,
          "apClass": {
            "rule": "SubRS",
            "subClass": 1,
            "bndTyp": "SINGLE"
          },
          "dirVec": {
            "x": 0.2985,
            "y": 0.384,
            "z": -0.6258
          }
        }
      ],
      "lstSymAPs": [],
      "mol": {
        "atoms": [
          {
            "elSymbol": "C",
            "p3d": {
              "x": -1.0244,
              "y": -0.2225,
              "z": 1.3991
            }
          },
          {
            "elSymbol": "C",
            "p3d": {
              "x": 0.3973,
              "y": -0.042,
              "z": 0.8195
            }
          },
          {
            "elSymbol": "H",
            "p3d": {
              "x": -1.5635,
              "y": -0.9908,
              "z": 0.8263
            }
          },
          {
            "elSymbol": "H",
            "p3d": {
              "x": -0.941,
              "y": -0.535,
              "z": 2.446
            }
          },
          {
            "elSymbol": "H",
            "p3d": {
              "x": -1.5586,
              "y": 0.7335,
              "z": 1.3382
            }
          },
          {
            "elSymbol": "H",
            "p3d": {
              "x": 0.9335,
              "y": 0.7221,
              "z": 1.4011
            }
          },
          {
            "elSymbol": "H",
            "p3d": {
              "x": 0.927,
              "y": -1.0102,
              "z": 0.9001
            }
          }
        ],
        "bonds": [
          {
            "atomIds": [
              0,
              1
            ],
            "bo": "SINGLE"
          },
          {
            "atomIds": [
              0,
              2
            ],
            "bo": "SINGLE"
          },
          {
            "atomIds": [
              0,
              3
            ],
            "bo": "SINGLE"
          },
          {
            "atomIds": [
              0,
              4
            ],
            "bo": "SINGLE"
          },
          {
            "atomIds": [
              1,
              5
            ],
            "bo": "SINGLE"
          },
          {
            "atomIds": [
              1,
              6
            ],
            "bo": "SINGLE"
          }
        ]
      },
      "vertexId": 147157,
      "buildingBlockId": 31,
      "buildingBlockType": "FRAGMENT",
      "isRCV": false,
      "properties": {
        "ATTACHMENT_POINTS": "2#SubRS:1:SINGLE:0.2985%0.3840%-0.6258 "
      },
      "uniquefyingPropertyKeys": [],
      "allowedMutationTypes": [
        "DELETE",
        "EXTEND",
        "CHANGEBRANCH",
        "CHANGELINK",
        "ADDLINK",
        "DELETELINK",
        "DELETECHAIN"
      ],
      "vertexType": "MolecularFragment"
    },
    {
      "lstAPs": [
        {
          "id": 192703,
          "atomPositionNumber": 0,
          "atomPositionNumberInMol": 30,
          "apClass": {
            "rule": "hyd",
            "subClass": 1,
            "bndTyp": "SINGLE"
          },
          "dirVec": {
            "x": 0.4589,
            "y": -1.751,
            "z": 0.3869
          }
        }
      ],
      "lstSymAPs": [],
      "mol": {
        "atoms": [
          {
            "elSymbol": "H",
            "p3d": {
              "x": 0.1925,
              "y": -2.5024,
              "z": 1.1483
            }
          }
        ],
        "bonds": []
      },
      "vertexId": 147156,
      "buildingBlockId": 0,
      "buildingBlockType": "CAP",
      "isRCV": false,
      "properties": {
        "ATTACHMENT_POINTS": "1#hyd:1:SINGLE:0.4589%-1.7510%0.3869 "
      },
      "uniquefyingPropertyKeys": [],
      "allowedMutationTypes": [
        "DELETE",
        "EXTEND",
        "CHANGEBRANCH",
        "CHANGELINK",
        "ADDLINK",
        "DELETELINK",
        "DELETECHAIN"
      ],
      "vertexType": "MolecularFragment"
    }
  ],
  "gEdges": [
    {
      "srcAPID": 192648,
      "trgAPID": 192651,
      "bondType": "SINGLE"
    },
    {
      "srcAPID": 192650,
      "trgAPID": 192653,
      "bondType": "SINGLE"
    },
    {
      "srcAPID": 192649,
      "trgAPID": 192657,
      "bondType": "SINGLE"
    },
    {
      "srcAPID": 192652,
      "trgAPID": 192700,
      "bondType": "SINGLE"
    },
    {
      "srcAPID": 192655,
      "trgAPID": 192701,
      "bondType": "SINGLE"
    },
    {
      "srcAPID": 192656,
      "trgAPID": 192702,
      "bondType": "SINGLE"
    },
    {
      "srcAPID": 192654,
      "trgAPID": 192703,
      "bondType": "SINGLE"
    }
  ],
  "gRings": [],
  "symVertices": [
    {
      "symIds": [
        145742,
        147156
      ]
    },
    {
      "symIds": [
        145746,
        147157
      ]
    }
  ]
}

> <SMILES>
[Pt](C#O)(C#N)([C]1N(C(C(N1[H])([H])C(C([H])([H])[H])([H])[H])([H])C(C([H])([H])[H])([H])[H])[H])SC([H])([H])[H]

$$$$
