M00001878
  CDK     04222209203D

 43 44  0  0  0  0  0  0  0  0999 V2000
   -1.8962    0.3024   -0.4850 Pt  0  0  0  0  0  0  0  0  0  0  0  0
   -3.8302    0.4559   -0.3017 C   0  0  0  0  0  0  0  0  0  0  0  0
   -4.9612    0.5501   -0.1774 O   0  0  0  0  0  0  0  0  0  0  0  0
   -2.0057    2.6077   -0.9027 S   0  0  0  0  0  0  0  0  0  0  0  0
   -2.2309    2.4451   -2.6986 C   0  0  0  0  0  0  0  0  0  0  0  0
   -3.2003    2.8672   -2.9880 H   0  0  0  0  0  0  0  0  0  0  0  0
   -2.1975    1.3935   -3.0062 H   0  0  0  0  0  0  0  0  0  0  0  0
   -1.4474    2.9976   -3.2263 H   0  0  0  0  0  0  0  0  0  0  0  0
    0.3801    0.1277   -0.5822 P   0  0  0  0  0  0  0  0  0  0  0  0
    1.3198    1.4725   -1.5166 C   0  0  0  0  0  0  0  0  0  0  0  0
    0.6317    2.2478   -1.9127 H   0  0  0  0  0  0  0  0  0  0  0  0
    2.0161    2.0107   -0.8494 H   0  0  0  0  0  0  0  0  0  0  0  0
    2.0426    0.7106   -2.6260 C   0  0  0  0  0  0  0  0  0  0  0  0
    3.0048    1.2048   -2.8663 H   0  0  0  0  0  0  0  0  0  0  0  0
    1.4533    0.7542   -3.5663 H   0  0  0  0  0  0  0  0  0  0  0  0
    2.2942   -0.7625   -2.2396 C   0  0  0  0  0  0  0  0  0  0  0  0
    3.2085   -0.8404   -1.6156 H   0  0  0  0  0  0  0  0  0  0  0  0
    2.5172   -1.3550   -3.1497 H   0  0  0  0  0  0  0  0  0  0  0  0
    1.0907   -1.3525   -1.5080 C   0  0  0  0  0  0  0  0  0  0  0  0
    1.3570   -2.1832   -0.8302 H   0  0  0  0  0  0  0  0  0  0  0  0
    0.3372   -1.7676   -2.2067 H   0  0  0  0  0  0  0  0  0  0  0  0
    0.9784    0.1526    1.2192 C   0  0  0  0  0  0  0  0  0  0  0  0
    0.3714    1.0684    3.4857 C   0  0  0  0  0  0  0  0  0  0  0  0
    1.4945   -1.1934    3.2800 C   0  0  0  0  0  0  0  0  0  0  0  0
    0.5138   -0.3349    4.0900 C   0  0  0  0  0  0  0  0  0  0  0  0
    1.0822   -1.2635    1.7990 C   0  0  0  0  0  0  0  0  0  0  0  0
   -0.0373    1.0002    2.0039 C   0  0  0  0  0  0  0  0  0  0  0  0
    1.3234    1.6224    3.5898 H   0  0  0  0  0  0  0  0  0  0  0  0
    2.5175   -0.7820    3.3696 H   0  0  0  0  0  0  0  0  0  0  0  0
   -0.4772   -0.8299    4.1213 H   0  0  0  0  0  0  0  0  0  0  0  0
    0.1106   -1.8026    1.7269 H   0  0  0  0  0  0  0  0  0  0  0  0
   -1.0659    0.5667    1.9364 H   0  0  0  0  0  0  0  0  0  0  0  0
    1.9847    0.6370    1.2674 H   0  0  0  0  0  0  0  0  0  0  0  0
   -0.3825    1.6481    4.0520 H   0  0  0  0  0  0  0  0  0  0  0  0
    1.5362   -2.2156    3.7018 H   0  0  0  0  0  0  0  0  0  0  0  0
    0.8524   -0.2622    5.1401 H   0  0  0  0  0  0  0  0  0  0  0  0
    1.8218   -1.8766    1.2483 H   0  0  0  0  0  0  0  0  0  0  0  0
   -0.1092    2.0342    1.6040 H   0  0  0  0  0  0  0  0  0  0  0  0
   -2.2308   -1.9813   -0.0702 S   0  0  0  0  0  0  0  0  0  0  0  0
   -2.4959   -2.4405   -1.8081 C   0  0  0  0  0  0  0  0  0  0  0  0
   -1.7636   -3.1948   -2.1123 H   0  0  0  0  0  0  0  0  0  0  0  0
   -2.4107   -1.5672   -2.4650 H   0  0  0  0  0  0  0  0  0  0  0  0
   -3.4974   -2.8713   -1.9245 H   0  0  0  0  0  0  0  0  0  0  0  0
  2  3  3  0  0  0  0
  1  2  1  0  0  0  0
  5  6  1  0  0  0  0
  5  7  1  0  0  0  0
  5  8  1  0  0  0  0
  4  5  1  0  0  0  0
  1  4  1  0  0  0  0
 10  9  1  0  0  0  0
 11 10  1  0  0  0  0
 12 10  1  0  0  0  0
 13 10  1  0  0  0  0
 14 13  1  0  0  0  0
 15 13  1  0  0  0  0
 16 13  1  0  0  0  0
 16 19  1  0  0  0  0
 17 16  1  0  0  0  0
 18 16  1  0  0  0  0
 19  9  1  0  0  0  0
 20 19  1  0  0  0  0
 21 19  1  0  0  0  0
  1  9  1  0  0  0  0
 22 33  1  0  0  0  0
 22 26  1  0  0  0  0
 22 27  1  0  0  0  0
 23 28  1  0  0  0  0
 23 34  1  0  0  0  0
 23 25  1  0  0  0  0
 23 27  1  0  0  0  0
 24 29  1  0  0  0  0
 24 35  1  0  0  0  0
 24 26  1  0  0  0  0
 24 25  1  0  0  0  0
 25 30  1  0  0  0  0
 25 36  1  0  0  0  0
 26 31  1  0  0  0  0
 26 37  1  0  0  0  0
 27 32  1  0  0  0  0
 27 38  1  0  0  0  0
  9 22  1  0  0  0  0
 40 41  1  0  0  0  0
 40 42  1  0  0  0  0
 40 43  1  0  0  0  0
 39 40  1  0  0  0  0
  1 39  1  0  0  0  0
M  END
> <PM6_ENERGY>
-309.692

> <UID>
ZWCOFWLBJCATBK-GXDFKKIUNA-L

> <FITNESS>
1.1417

> <GCODE>
2519

> <GraphENC>
2519 72_1_0,79_64_1,104_42_1,85_64_1,46785_35_1, 72_0_79_0_SINGLE_Xlig:0_Xlig:1,72_2_104_1_SINGLE_scaff:0_MPhosphine:1,72_1_85_0_SINGLE_Xlig:0_Xlig:1,104_0_46785_0_SINGLE_LPhosphineSubM:0_SubRM:1, 

> <GraphJson>
{
  "graphId": 2519,
  "gVertices": [
    {
      "lstAPs": [
        {
          "id": 62575,
          "atomPositionNumber": 0,
          "atomPositionNumberInMol": 0,
          "apClass": {
            "rule": "Xlig",
            "subClass": 0,
            "bndTyp": "SINGLE"
          },
          "dirVec": {
            "x": -2.3339,
            "y": -0.0087,
            "z": 0.8172
          }
        },
        {
          "id": 62576,
          "atomPositionNumber": 0,
          "atomPositionNumberInMol": 0,
          "apClass": {
            "rule": "Xlig",
            "subClass": 0,
            "bndTyp": "SINGLE"
          },
          "dirVec": {
            "x": 2.336,
            "y": -5.0E-4,
            "z": 0.829
          }
        },
        {
          "id": 62577,
          "atomPositionNumber": 0,
          "atomPositionNumberInMol": 0,
          "apClass": {
            "rule": "scaff",
            "subClass": 0,
            "bndTyp": "SINGLE"
          },
          "dirVec": {
            "x": -0.0095,
            "y": 0.0046,
            "z": -1.7113
          }
        }
      ],
      "lstSymAPs": [
        {
          "symIds": [
            0,
            1
          ]
        }
      ],
      "mol": {
        "atoms": [
          {
            "elSymbol": "Pt",
            "p3d": {
              "x": -0.0098,
              "y": 0.0049,
              "z": 0.6289
            }
          },
          {
            "elSymbol": "C",
            "p3d": {
              "x": -6.0E-4,
              "y": 0.0016,
              "z": 2.5609
            }
          },
          {
            "elSymbol": "O",
            "p3d": {
              "x": 0.0025,
              "y": -0.0041,
              "z": 3.6974
            }
          },
          {
            "elSymbol": "Du",
            "p3d": {
              "x": -0.007,
              "y": 1.0013,
              "z": 0.6372
            }
          },
          {
            "elSymbol": "Du",
            "p3d": {
              "x": -0.0014,
              "y": 0.9902,
              "z": 2.5698
            }
          }
        ],
        "bonds": [
          {
            "atomIds": [
              1,
              2
            ],
            "bo": "TRIPLE"
          },
          {
            "atomIds": [
              0,
              1
            ],
            "bo": "SINGLE"
          },
          {
            "atomIds": [
              3,
              0
            ],
            "bo": "SINGLE"
          },
          {
            "atomIds": [
              4,
              1
            ],
            "bo": "SINGLE"
          }
        ]
      },
      "vertexId": 72,
      "buildingBlockId": 0,
      "buildingBlockType": "SCAFFOLD",
      "isRCV": false,
      "properties": {
        "ATTACHMENT_POINTS": "1#Xlig:0:SINGLE:-2.3339%-0.0087%0.8172,Xlig:0:SINGLE:2.3360%-0.0005%0.8290,scaff:0:SINGLE:-0.0095%0.0046%-1.7113 "
      },
      "uniquefyingPropertyKeys": [],
      "allowedMutationTypes": [
        "DELETE",
        "EXTEND",
        "CHANGEBRANCH",
        "CHANGELINK",
        "ADDLINK",
        "DELETELINK",
        "DELETECHAIN"
      ],
      "vertexType": "MolecularFragment"
    },
    {
      "lstAPs": [
        {
          "id": 62578,
          "atomPositionNumber": 0,
          "atomPositionNumberInMol": 5,
          "apClass": {
            "rule": "Xlig",
            "subClass": 1,
            "bndTyp": "SINGLE"
          },
          "dirVec": {
            "x": -0.102,
            "y": 0.0185,
            "z": -1.0265
          }
        }
      ],
      "lstSymAPs": [],
      "mol": {
        "atoms": [
          {
            "elSymbol": "S",
            "p3d": {
              "x": -0.3267,
              "y": 2.3403,
              "z": -1.0022
            }
          },
          {
            "elSymbol": "C",
            "p3d": {
              "x": -0.626,
              "y": 2.4866,
              "z": 0.7805
            }
          },
          {
            "elSymbol": "H",
            "p3d": {
              "x": 0.1766,
              "y": 3.089,
              "z": 1.2414
            }
          },
          {
            "elSymbol": "H",
            "p3d": {
              "x": -0.651,
              "y": 1.5065,
              "z": 1.2643
            }
          },
          {
            "elSymbol": "H",
            "p3d": {
              "x": -1.5658,
              "y": 2.981,
              "z": 0.9515
            }
          }
        ],
        "bonds": [
          {
            "atomIds": [
              1,
              2
            ],
            "bo": "SINGLE"
          },
          {
            "atomIds": [
              1,
              3
            ],
            "bo": "SINGLE"
          },
          {
            "atomIds": [
              1,
              4
            ],
            "bo": "SINGLE"
          },
          {
            "atomIds": [
              0,
              1
            ],
            "bo": "SINGLE"
          }
        ]
      },
      "vertexId": 79,
      "buildingBlockId": 63,
      "buildingBlockType": "FRAGMENT",
      "isRCV": false,
      "properties": {
        "ATTACHMENT_POINTS": "1#Xlig:1:SINGLE:-0.1020%0.0185%-1.0265 "
      },
      "uniquefyingPropertyKeys": [],
      "allowedMutationTypes": [
        "DELETE",
        "EXTEND",
        "CHANGEBRANCH",
        "CHANGELINK",
        "ADDLINK",
        "DELETELINK",
        "DELETECHAIN"
      ],
      "vertexType": "MolecularFragment"
    },
    {
      "lstAPs": [
        {
          "id": 62579,
          "atomPositionNumber": 0,
          "atomPositionNumberInMol": 10,
          "apClass": {
            "rule": "LPhosphineSubM",
            "subClass": 0,
            "bndTyp": "SINGLE"
          },
          "dirVec": {
            "x": 2.723,
            "y": 1.7542,
            "z": 13.2677
          }
        },
        {
          "id": 62580,
          "atomPositionNumber": 0,
          "atomPositionNumberInMol": 10,
          "apClass": {
            "rule": "MPhosphine",
            "subClass": 1,
            "bndTyp": "SINGLE"
          },
          "dirVec": {
            "x": 4.8307,
            "y": -0.2673,
            "z": 11.5812
          }
        }
      ],
      "lstSymAPs": [],
      "mol": {
        "atoms": [
          {
            "elSymbol": "P",
            "p3d": {
              "x": 3.2259,
              "y": 1.2767,
              "z": 11.5745
            }
          },
          {
            "elSymbol": "C",
            "p3d": {
              "x": 1.6598,
              "y": 0.7995,
              "z": 10.6875
            }
          },
          {
            "elSymbol": "H",
            "p3d": {
              "x": 1.6974,
              "y": -0.248,
              "z": 10.3885
            }
          },
          {
            "elSymbol": "H",
            "p3d": {
              "x": 0.7981,
              "y": 0.9391,
              "z": 11.3443
            }
          },
          {
            "elSymbol": "C",
            "p3d": {
              "x": 1.5701,
              "y": 1.7203,
              "z": 9.4939
            }
          },
          {
            "elSymbol": "H",
            "p3d": {
              "x": 0.5288,
              "y": 1.8359,
              "z": 9.1795
            }
          },
          {
            "elSymbol": "H",
            "p3d": {
              "x": 2.1382,
              "y": 1.3052,
              "z": 8.655
            }
          },
          {
            "elSymbol": "C",
            "p3d": {
              "x": 2.1438,
              "y": 3.0759,
              "z": 9.8936
            }
          },
          {
            "elSymbol": "H",
            "p3d": {
              "x": 1.4578,
              "y": 3.5682,
              "z": 10.5909
            }
          },
          {
            "elSymbol": "H",
            "p3d": {
              "x": 2.2815,
              "y": 3.6992,
              "z": 9.0137
            }
          },
          {
            "elSymbol": "C",
            "p3d": {
              "x": 3.4838,
              "y": 2.7861,
              "z": 10.5731
            }
          },
          {
            "elSymbol": "H",
            "p3d": {
              "x": 3.7886,
              "y": 3.6232,
              "z": 11.214
            }
          },
          {
            "elSymbol": "H",
            "p3d": {
              "x": 4.2729,
              "y": 2.6329,
              "z": 9.835
            }
          }
        ],
        "bonds": [
          {
            "atomIds": [
              1,
              0
            ],
            "bo": "SINGLE"
          },
          {
            "atomIds": [
              2,
              1
            ],
            "bo": "SINGLE"
          },
          {
            "atomIds": [
              3,
              1
            ],
            "bo": "SINGLE"
          },
          {
            "atomIds": [
              4,
              1
            ],
            "bo": "SINGLE"
          },
          {
            "atomIds": [
              5,
              4
            ],
            "bo": "SINGLE"
          },
          {
            "atomIds": [
              6,
              4
            ],
            "bo": "SINGLE"
          },
          {
            "atomIds": [
              7,
              4
            ],
            "bo": "SINGLE"
          },
          {
            "atomIds": [
              7,
              10
            ],
            "bo": "SINGLE"
          },
          {
            "atomIds": [
              8,
              7
            ],
            "bo": "SINGLE"
          },
          {
            "atomIds": [
              9,
              7
            ],
            "bo": "SINGLE"
          },
          {
            "atomIds": [
              10,
              0
            ],
            "bo": "SINGLE"
          },
          {
            "atomIds": [
              11,
              10
            ],
            "bo": "SINGLE"
          },
          {
            "atomIds": [
              12,
              10
            ],
            "bo": "SINGLE"
          }
        ]
      },
      "vertexId": 104,
      "buildingBlockId": 41,
      "buildingBlockType": "FRAGMENT",
      "isRCV": false,
      "properties": {
        "ATTACHMENT_POINTS": "1#LPhosphineSubM:0:SINGLE:2.7230%1.7542%13.2677,MPhosphine:1:SINGLE:4.8307%-0.2673%11.5812 "
      },
      "uniquefyingPropertyKeys": [],
      "allowedMutationTypes": [
        "DELETE",
        "EXTEND",
        "CHANGEBRANCH",
        "CHANGELINK",
        "ADDLINK",
        "DELETELINK",
        "DELETECHAIN"
      ],
      "vertexType": "MolecularFragment"
    },
    {
      "lstAPs": [
        {
          "id": 62581,
          "atomPositionNumber": 0,
          "atomPositionNumberInMol": 40,
          "apClass": {
            "rule": "Xlig",
            "subClass": 1,
            "bndTyp": "SINGLE"
          },
          "dirVec": {
            "x": -0.102,
            "y": 0.0185,
            "z": -1.0265
          }
        }
      ],
      "lstSymAPs": [],
      "mol": {
        "atoms": [
          {
            "elSymbol": "S",
            "p3d": {
              "x": -0.3267,
              "y": 2.3403,
              "z": -1.0022
            }
          },
          {
            "elSymbol": "C",
            "p3d": {
              "x": -0.626,
              "y": 2.4866,
              "z": 0.7805
            }
          },
          {
            "elSymbol": "H",
            "p3d": {
              "x": 0.1766,
              "y": 3.089,
              "z": 1.2414
            }
          },
          {
            "elSymbol": "H",
            "p3d": {
              "x": -0.651,
              "y": 1.5065,
              "z": 1.2643
            }
          },
          {
            "elSymbol": "H",
            "p3d": {
              "x": -1.5658,
              "y": 2.981,
              "z": 0.9515
            }
          }
        ],
        "bonds": [
          {
            "atomIds": [
              1,
              2
            ],
            "bo": "SINGLE"
          },
          {
            "atomIds": [
              1,
              3
            ],
            "bo": "SINGLE"
          },
          {
            "atomIds": [
              1,
              4
            ],
            "bo": "SINGLE"
          },
          {
            "atomIds": [
              0,
              1
            ],
            "bo": "SINGLE"
          }
        ]
      },
      "vertexId": 85,
      "buildingBlockId": 63,
      "buildingBlockType": "FRAGMENT",
      "isRCV": false,
      "properties": {
        "ATTACHMENT_POINTS": "1#Xlig:1:SINGLE:-0.1020%0.0185%-1.0265 "
      },
      "uniquefyingPropertyKeys": [],
      "allowedMutationTypes": [
        "DELETE",
        "EXTEND",
        "CHANGEBRANCH",
        "CHANGELINK",
        "ADDLINK",
        "DELETELINK",
        "DELETECHAIN"
      ],
      "vertexType": "MolecularFragment"
    },
    {
      "lstAPs": [
        {
          "id": 62611,
          "atomPositionNumber": 0,
          "atomPositionNumberInMol": 23,
          "apClass": {
            "rule": "SubRM",
            "subClass": 1,
            "bndTyp": "SINGLE"
          },
          "dirVec": {
            "x": 0.2917,
            "y": 0.3929,
            "z": -0.6365
          }
        }
      ],
      "lstSymAPs": [],
      "mol": {
        "atoms": [
          {
            "elSymbol": "C",
            "p3d": {
              "x": 1.7002,
              "y": 0.56,
              "z": -1.2045
            }
          },
          {
            "elSymbol": "C",
            "p3d": {
              "x": 3.564,
              "y": -0.7339,
              "z": -2.2652
            }
          },
          {
            "elSymbol": "C",
            "p3d": {
              "x": 2.9237,
              "y": 1.5034,
              "z": -3.1926
            }
          },
          {
            "elSymbol": "C",
            "p3d": {
              "x": 3.4145,
              "y": 0.0994,
              "z": -3.5498
            }
          },
          {
            "elSymbol": "C",
            "p3d": {
              "x": 1.5576,
              "y": 1.3879,
              "z": -2.5024
            }
          },
          {
            "elSymbol": "C",
            "p3d": {
              "x": 2.203,
              "y": -0.843,
              "z": -1.5702
            }
          },
          {
            "elSymbol": "H",
            "p3d": {
              "x": 4.3384,
              "y": -0.3241,
              "z": -1.6106
            }
          },
          {
            "elSymbol": "H",
            "p3d": {
              "x": 3.6361,
              "y": 2.0524,
              "z": -2.5991
            }
          },
          {
            "elSymbol": "H",
            "p3d": {
              "x": 2.7828,
              "y": -0.3911,
              "z": -4.2916
            }
          },
          {
            "elSymbol": "H",
            "p3d": {
              "x": 0.7737,
              "y": 0.9833,
              "z": -3.15
            }
          },
          {
            "elSymbol": "H",
            "p3d": {
              "x": 1.4815,
              "y": -1.3988,
              "z": -2.1783
            }
          },
          {
            "elSymbol": "H",
            "p3d": {
              "x": 2.3445,
              "y": 1.0609,
              "z": -0.4835
            }
          },
          {
            "elSymbol": "H",
            "p3d": {
              "x": 3.8429,
              "y": -1.7623,
              "z": -2.577
            }
          },
          {
            "elSymbol": "H",
            "p3d": {
              "x": 2.7428,
              "y": 2.0124,
              "z": -4.146
            }
          },
          {
            "elSymbol": "H",
            "p3d": {
              "x": 4.4291,
              "y": 0.2183,
              "z": -3.9628
            }
          },
          {
            "elSymbol": "H",
            "p3d": {
              "x": 1.2819,
              "y": 2.4034,
              "z": -2.1821
            }
          },
          {
            "elSymbol": "H",
            "p3d": {
              "x": 2.3734,
              "y": -1.3662,
              "z": -0.6149
            }
          }
        ],
        "bonds": [
          {
            "atomIds": [
              0,
              11
            ],
            "bo": "SINGLE"
          },
          {
            "atomIds": [
              0,
              4
            ],
            "bo": "SINGLE"
          },
          {
            "atomIds": [
              0,
              5
            ],
            "bo": "SINGLE"
          },
          {
            "atomIds": [
              1,
              6
            ],
            "bo": "SINGLE"
          },
          {
            "atomIds": [
              1,
              12
            ],
            "bo": "SINGLE"
          },
          {
            "atomIds": [
              1,
              3
            ],
            "bo": "SINGLE"
          },
          {
            "atomIds": [
              1,
              5
            ],
            "bo": "SINGLE"
          },
          {
            "atomIds": [
              2,
              7
            ],
            "bo": "SINGLE"
          },
          {
            "atomIds": [
              2,
              13
            ],
            "bo": "SINGLE"
          },
          {
            "atomIds": [
              2,
              4
            ],
            "bo": "SINGLE"
          },
          {
            "atomIds": [
              2,
              3
            ],
            "bo": "SINGLE"
          },
          {
            "atomIds": [
              3,
              8
            ],
            "bo": "SINGLE"
          },
          {
            "atomIds": [
              3,
              14
            ],
            "bo": "SINGLE"
          },
          {
            "atomIds": [
              4,
              9
            ],
            "bo": "SINGLE"
          },
          {
            "atomIds": [
              4,
              15
            ],
            "bo": "SINGLE"
          },
          {
            "atomIds": [
              5,
              10
            ],
            "bo": "SINGLE"
          },
          {
            "atomIds": [
              5,
              16
            ],
            "bo": "SINGLE"
          }
        ]
      },
      "vertexId": 46785,
      "buildingBlockId": 34,
      "buildingBlockType": "FRAGMENT",
      "isRCV": false,
      "properties": {
        "ATTACHMENT_POINTS": "1#SubRM:1:SINGLE:0.2917%0.3929%-0.6365 "
      },
      "uniquefyingPropertyKeys": [],
      "allowedMutationTypes": [
        "DELETE",
        "EXTEND",
        "CHANGEBRANCH",
        "CHANGELINK",
        "ADDLINK",
        "DELETELINK",
        "DELETECHAIN"
      ],
      "vertexType": "MolecularFragment"
    }
  ],
  "gEdges": [
    {
      "srcAPID": 62575,
      "trgAPID": 62578,
      "bondType": "SINGLE"
    },
    {
      "srcAPID": 62577,
      "trgAPID": 62580,
      "bondType": "SINGLE"
    },
    {
      "srcAPID": 62576,
      "trgAPID": 62581,
      "bondType": "SINGLE"
    },
    {
      "srcAPID": 62579,
      "trgAPID": 62611,
      "bondType": "SINGLE"
    }
  ],
  "gRings": [],
  "symVertices": []
}

> <SMILES>
[Pt](C#O)(SC([H])([H])[H])([P]1(C([H])([H])C([H])([H])C(C1([H])[H])([H])[H])C2([H])C(C([H])([H])C(C([H])([H])C2([H])[H])([H])[H])([H])[H])SC([H])([H])[H]

$$$$
