M00003622
  CDK     04222210013D

 39 39  0  0  0  0  0  0  0  0999 V2000
   -0.1628    0.0100    1.7511 Pt  0  0  0  0  0  0  0  0  0  0  0  0
   -0.1590    0.0036    3.6706 C   0  0  0  0  0  0  0  0  0  0  0  0
   -0.1618    0.0048    4.8158 O   0  0  0  0  0  0  0  0  0  0  0  0
    2.1679   -0.0791    1.7519 S   0  0  0  0  0  0  0  0  0  0  0  0
    2.3707   -1.7890    2.3292 C   0  0  0  0  0  0  0  0  0  0  0  0
    3.1476   -2.2812    1.7340 H   0  0  0  0  0  0  0  0  0  0  0  0
    1.4388   -2.3547    2.2307 H   0  0  0  0  0  0  0  0  0  0  0  0
    2.6874   -1.7955    3.3778 H   0  0  0  0  0  0  0  0  0  0  0  0
   -0.4337   -1.1252   -0.9615 N   0  0  0  0  0  0  0  0  0  0  0  0
   -0.0224    1.2118   -0.9395 N   0  0  0  0  0  0  0  0  0  0  0  0
   -0.1952    0.0305   -0.2843 C   0  0  0  0  0  0  0  0  0  0  0  0
   -0.5038   -1.1723   -2.4481 C   0  0  0  0  0  0  0  0  0  0  0  0
   -1.2160   -1.9688   -2.7588 H   0  0  0  0  0  0  0  0  0  0  0  0
    0.4985   -1.4494   -2.8492 H   0  0  0  0  0  0  0  0  0  0  0  0
   -0.9505    0.1891   -2.9976 C   0  0  0  0  0  0  0  0  0  0  0  0
   -2.0162    0.3701   -2.7401 H   0  0  0  0  0  0  0  0  0  0  0  0
   -0.8987    0.1908   -4.1029 H   0  0  0  0  0  0  0  0  0  0  0  0
   -0.0739    1.3103   -2.4243 C   0  0  0  0  0  0  0  0  0  0  0  0
    0.9633    1.2443   -2.8279 H   0  0  0  0  0  0  0  0  0  0  0  0
   -0.4768    2.3059   -2.7141 H   0  0  0  0  0  0  0  0  0  0  0  0
    0.4989   -3.3867   -0.4874 C   0  0  0  0  0  0  0  0  0  0  0  0
   -0.6326   -2.4013   -0.2137 C   0  0  0  0  0  0  0  0  0  0  0  0
    0.5137   -3.7330   -1.5262 H   0  0  0  0  0  0  0  0  0  0  0  0
    1.4826   -2.9393   -0.2785 H   0  0  0  0  0  0  0  0  0  0  0  0
    0.4041   -4.2740    0.1514 H   0  0  0  0  0  0  0  0  0  0  0  0
   -1.6184   -2.8327   -0.5050 H   0  0  0  0  0  0  0  0  0  0  0  0
   -0.6976   -2.1801    0.8868 H   0  0  0  0  0  0  0  0  0  0  0  0
    1.6633    2.9671   -0.3963 C   0  0  0  0  0  0  0  0  0  0  0  0
    0.2435    2.4616   -0.1672 C   0  0  0  0  0  0  0  0  0  0  0  0
    1.8440    3.2720   -1.4314 H   0  0  0  0  0  0  0  0  0  0  0  0
    1.8786    3.8298    0.2471 H   0  0  0  0  0  0  0  0  0  0  0  0
    2.4099    2.1945   -0.1456 H   0  0  0  0  0  0  0  0  0  0  0  0
    0.0794    2.2608    0.9271 H   0  0  0  0  0  0  0  0  0  0  0  0
   -0.5060    3.2282   -0.4689 H   0  0  0  0  0  0  0  0  0  0  0  0
   -2.4917    0.0801    1.7896 S   0  0  0  0  0  0  0  0  0  0  0  0
   -2.7219    1.8719    1.9694 C   0  0  0  0  0  0  0  0  0  0  0  0
   -2.8314    2.3438    0.9887 H   0  0  0  0  0  0  0  0  0  0  0  0
   -1.8836    2.3297    2.5025 H   0  0  0  0  0  0  0  0  0  0  0  0
   -3.6384    2.0518    2.5449 H   0  0  0  0  0  0  0  0  0  0  0  0
  2  3  3  0  0  0  0
  1  2  1  0  0  0  0
  5  6  1  0  0  0  0
  5  7  1  0  0  0  0
  5  8  1  0  0  0  0
  4  5  1  0  0  0  0
  1  4  1  0  0  0  0
  9 11  1  0  0  0  0
 10 11  1  0  0  0  0
 12  9  1  0  0  0  0
 13 12  1  0  0  0  0
 14 12  1  0  0  0  0
 15 12  1  0  0  0  0
 16 15  1  0  0  0  0
 17 15  1  0  0  0  0
 18 10  1  0  0  0  0
 19 18  1  0  0  0  0
 20 18  1  0  0  0  0
 15 18  1  0  0  0  0
  1 11  1  0  0  0  0
 21 22  1  0  0  0  0
 21 23  1  0  0  0  0
 21 24  1  0  0  0  0
 21 25  1  0  0  0  0
 22 26  1  0  0  0  0
 22 27  1  0  0  0  0
  9 22  1  0  0  0  0
 28 29  1  0  0  0  0
 28 30  1  0  0  0  0
 28 31  1  0  0  0  0
 28 32  1  0  0  0  0
 29 33  1  0  0  0  0
 29 34  1  0  0  0  0
 10 29  1  0  0  0  0
 36 37  1  0  0  0  0
 36 38  1  0  0  0  0
 36 39  1  0  0  0  0
 35 36  1  0  0  0  0
  1 35  1  0  0  0  0
M  END
> <PM6_ENERGY>
-139.574

> <UID>
VCQLQYJXSUMQHQ-QMRCBQGENA-L

> <FITNESS>
1.1452

> <GCODE>
4337

> <GraphENC>
4337 72_1_0,79_64_1,91_13_1,85_64_1,84196_32_1,84223_32_1, 72_0_79_0_SINGLE_Xlig:0_Xlig:1,72_2_91_2_SINGLE_scaff:0_M6HPyrimidinylidene:1,72_1_85_0_SINGLE_Xlig:0_Xlig:1,91_0_84196_0_SINGLE_L6HPyrimidinylideneSubN:0_SubRS:1,91_1_84223_0_SINGLE_L6HPyrimidinylideneSubN:0_SubRS:1, SymmetricSet [symIds=[84196, 84223]] 

> <GraphJson>
{
  "graphId": 4337,
  "gVertices": [
    {
      "lstAPs": [
        {
          "id": 111041,
          "atomPositionNumber": 0,
          "atomPositionNumberInMol": 0,
          "apClass": {
            "rule": "Xlig",
            "subClass": 0,
            "bndTyp": "SINGLE"
          },
          "dirVec": {
            "x": -2.3339,
            "y": -0.0087,
            "z": 0.8172
          }
        },
        {
          "id": 111042,
          "atomPositionNumber": 0,
          "atomPositionNumberInMol": 0,
          "apClass": {
            "rule": "Xlig",
            "subClass": 0,
            "bndTyp": "SINGLE"
          },
          "dirVec": {
            "x": 2.336,
            "y": -5.0E-4,
            "z": 0.829
          }
        },
        {
          "id": 111043,
          "atomPositionNumber": 0,
          "atomPositionNumberInMol": 0,
          "apClass": {
            "rule": "scaff",
            "subClass": 0,
            "bndTyp": "SINGLE"
          },
          "dirVec": {
            "x": -0.0095,
            "y": 0.0046,
            "z": -1.7113
          }
        }
      ],
      "lstSymAPs": [
        {
          "symIds": [
            0,
            1
          ]
        }
      ],
      "mol": {
        "atoms": [
          {
            "elSymbol": "Pt",
            "p3d": {
              "x": -0.0098,
              "y": 0.0049,
              "z": 0.6289
            }
          },
          {
            "elSymbol": "C",
            "p3d": {
              "x": -6.0E-4,
              "y": 0.0016,
              "z": 2.5609
            }
          },
          {
            "elSymbol": "O",
            "p3d": {
              "x": 0.0025,
              "y": -0.0041,
              "z": 3.6974
            }
          },
          {
            "elSymbol": "Du",
            "p3d": {
              "x": -0.007,
              "y": 1.0013,
              "z": 0.6372
            }
          },
          {
            "elSymbol": "Du",
            "p3d": {
              "x": -0.0014,
              "y": 0.9902,
              "z": 2.5698
            }
          }
        ],
        "bonds": [
          {
            "atomIds": [
              1,
              2
            ],
            "bo": "TRIPLE"
          },
          {
            "atomIds": [
              0,
              1
            ],
            "bo": "SINGLE"
          },
          {
            "atomIds": [
              3,
              0
            ],
            "bo": "SINGLE"
          },
          {
            "atomIds": [
              4,
              1
            ],
            "bo": "SINGLE"
          }
        ]
      },
      "vertexId": 72,
      "buildingBlockId": 0,
      "buildingBlockType": "SCAFFOLD",
      "isRCV": false,
      "properties": {
        "ATTACHMENT_POINTS": "1#Xlig:0:SINGLE:-2.3339%-0.0087%0.8172,Xlig:0:SINGLE:2.3360%-0.0005%0.8290,scaff:0:SINGLE:-0.0095%0.0046%-1.7113 "
      },
      "uniquefyingPropertyKeys": [],
      "allowedMutationTypes": [
        "DELETE",
        "EXTEND",
        "CHANGEBRANCH",
        "CHANGELINK",
        "ADDLINK",
        "DELETELINK",
        "DELETECHAIN"
      ],
      "vertexType": "MolecularFragment"
    },
    {
      "lstAPs": [
        {
          "id": 111044,
          "atomPositionNumber": 0,
          "atomPositionNumberInMol": 5,
          "apClass": {
            "rule": "Xlig",
            "subClass": 1,
            "bndTyp": "SINGLE"
          },
          "dirVec": {
            "x": -0.102,
            "y": 0.0185,
            "z": -1.0265
          }
        }
      ],
      "lstSymAPs": [],
      "mol": {
        "atoms": [
          {
            "elSymbol": "S",
            "p3d": {
              "x": -0.3267,
              "y": 2.3403,
              "z": -1.0022
            }
          },
          {
            "elSymbol": "C",
            "p3d": {
              "x": -0.626,
              "y": 2.4866,
              "z": 0.7805
            }
          },
          {
            "elSymbol": "H",
            "p3d": {
              "x": 0.1766,
              "y": 3.089,
              "z": 1.2414
            }
          },
          {
            "elSymbol": "H",
            "p3d": {
              "x": -0.651,
              "y": 1.5065,
              "z": 1.2643
            }
          },
          {
            "elSymbol": "H",
            "p3d": {
              "x": -1.5658,
              "y": 2.981,
              "z": 0.9515
            }
          }
        ],
        "bonds": [
          {
            "atomIds": [
              1,
              2
            ],
            "bo": "SINGLE"
          },
          {
            "atomIds": [
              1,
              3
            ],
            "bo": "SINGLE"
          },
          {
            "atomIds": [
              1,
              4
            ],
            "bo": "SINGLE"
          },
          {
            "atomIds": [
              0,
              1
            ],
            "bo": "SINGLE"
          }
        ]
      },
      "vertexId": 79,
      "buildingBlockId": 63,
      "buildingBlockType": "FRAGMENT",
      "isRCV": false,
      "properties": {
        "ATTACHMENT_POINTS": "1#Xlig:1:SINGLE:-0.1020%0.0185%-1.0265 "
      },
      "uniquefyingPropertyKeys": [],
      "allowedMutationTypes": [
        "DELETE",
        "EXTEND",
        "CHANGEBRANCH",
        "CHANGELINK",
        "ADDLINK",
        "DELETELINK",
        "DELETECHAIN"
      ],
      "vertexType": "MolecularFragment"
    },
    {
      "lstAPs": [
        {
          "id": 111045,
          "atomPositionNumber": 0,
          "atomPositionNumberInMol": 10,
          "apClass": {
            "rule": "L6HPyrimidinylideneSubN",
            "subClass": 0,
            "bndTyp": "SINGLE"
          },
          "dirVec": {
            "x": 3.6986,
            "y": 10.1321,
            "z": 12.1775
          }
        },
        {
          "id": 111046,
          "atomPositionNumber": 1,
          "atomPositionNumberInMol": 11,
          "apClass": {
            "rule": "L6HPyrimidinylideneSubN",
            "subClass": 0,
            "bndTyp": "SINGLE"
          },
          "dirVec": {
            "x": 4.7983,
            "y": 14.0099,
            "z": 14.7771
          }
        },
        {
          "id": 111047,
          "atomPositionNumber": 2,
          "atomPositionNumberInMol": 12,
          "apClass": {
            "rule": "M6HPyrimidinylidene",
            "subClass": 1,
            "bndTyp": "SINGLE"
          },
          "dirVec": {
            "x": 6.012,
            "y": 12.0516,
            "z": 12.7188
          }
        }
      ],
      "lstSymAPs": [
        {
          "symIds": [
            0,
            1
          ]
        }
      ],
      "mol": {
        "atoms": [
          {
            "elSymbol": "N",
            "p3d": {
              "x": 3.3266,
              "y": 11.1346,
              "z": 13.1445
            }
          },
          {
            "elSymbol": "N",
            "p3d": {
              "x": 3.8396,
              "y": 13.0125,
              "z": 14.3399
            }
          },
          {
            "elSymbol": "C",
            "p3d": {
              "x": 4.223,
              "y": 12.0593,
              "z": 13.4858
            }
          },
          {
            "elSymbol": "C",
            "p3d": {
              "x": 1.9257,
              "y": 11.1023,
              "z": 13.6161
            }
          },
          {
            "elSymbol": "H",
            "p3d": {
              "x": 1.5873,
              "y": 10.0735,
              "z": 13.6893
            }
          },
          {
            "elSymbol": "H",
            "p3d": {
              "x": 1.2755,
              "y": 11.6279,
              "z": 12.9065
            }
          },
          {
            "elSymbol": "C",
            "p3d": {
              "x": 1.8556,
              "y": 11.7608,
              "z": 14.9634
            }
          },
          {
            "elSymbol": "H",
            "p3d": {
              "x": 2.3477,
              "y": 11.1349,
              "z": 15.7024
            }
          },
          {
            "elSymbol": "H",
            "p3d": {
              "x": 0.8059,
              "y": 11.86,
              "z": 15.2619
            }
          },
          {
            "elSymbol": "C",
            "p3d": {
              "x": 2.4969,
              "y": 13.1208,
              "z": 14.9163
            }
          },
          {
            "elSymbol": "H",
            "p3d": {
              "x": 1.8796,
              "y": 13.7836,
              "z": 14.3197
            }
          },
          {
            "elSymbol": "H",
            "p3d": {
              "x": 2.5543,
              "y": 13.5401,
              "z": 15.9154
            }
          }
        ],
        "bonds": [
          {
            "atomIds": [
              0,
              2
            ],
            "bo": "SINGLE"
          },
          {
            "atomIds": [
              1,
              2
            ],
            "bo": "SINGLE"
          },
          {
            "atomIds": [
              3,
              0
            ],
            "bo": "SINGLE"
          },
          {
            "atomIds": [
              4,
              3
            ],
            "bo": "SINGLE"
          },
          {
            "atomIds": [
              5,
              3
            ],
            "bo": "SINGLE"
          },
          {
            "atomIds": [
              6,
              3
            ],
            "bo": "SINGLE"
          },
          {
            "atomIds": [
              7,
              6
            ],
            "bo": "SINGLE"
          },
          {
            "atomIds": [
              8,
              6
            ],
            "bo": "SINGLE"
          },
          {
            "atomIds": [
              9,
              1
            ],
            "bo": "SINGLE"
          },
          {
            "atomIds": [
              10,
              9
            ],
            "bo": "SINGLE"
          },
          {
            "atomIds": [
              11,
              9
            ],
            "bo": "SINGLE"
          },
          {
            "atomIds": [
              6,
              9
            ],
            "bo": "SINGLE"
          }
        ]
      },
      "vertexId": 91,
      "buildingBlockId": 12,
      "buildingBlockType": "FRAGMENT",
      "isRCV": false,
      "properties": {
        "ATTACHMENT_POINTS": "1#L6HPyrimidinylideneSubN:0:SINGLE:3.6986%10.1321%12.1775 2#L6HPyrimidinylideneSubN:0:SINGLE:4.7983%14.0099%14.7771 3#M6HPyrimidinylidene:1:SINGLE:6.0120%12.0516%12.7188 "
      },
      "uniquefyingPropertyKeys": [],
      "allowedMutationTypes": [
        "DELETE",
        "EXTEND",
        "CHANGEBRANCH",
        "CHANGELINK",
        "ADDLINK",
        "DELETELINK",
        "DELETECHAIN"
      ],
      "vertexType": "MolecularFragment"
    },
    {
      "lstAPs": [
        {
          "id": 111048,
          "atomPositionNumber": 0,
          "atomPositionNumberInMol": 36,
          "apClass": {
            "rule": "Xlig",
            "subClass": 1,
            "bndTyp": "SINGLE"
          },
          "dirVec": {
            "x": -0.102,
            "y": 0.0185,
            "z": -1.0265
          }
        }
      ],
      "lstSymAPs": [],
      "mol": {
        "atoms": [
          {
            "elSymbol": "S",
            "p3d": {
              "x": -0.3267,
              "y": 2.3403,
              "z": -1.0022
            }
          },
          {
            "elSymbol": "C",
            "p3d": {
              "x": -0.626,
              "y": 2.4866,
              "z": 0.7805
            }
          },
          {
            "elSymbol": "H",
            "p3d": {
              "x": 0.1766,
              "y": 3.089,
              "z": 1.2414
            }
          },
          {
            "elSymbol": "H",
            "p3d": {
              "x": -0.651,
              "y": 1.5065,
              "z": 1.2643
            }
          },
          {
            "elSymbol": "H",
            "p3d": {
              "x": -1.5658,
              "y": 2.981,
              "z": 0.9515
            }
          }
        ],
        "bonds": [
          {
            "atomIds": [
              1,
              2
            ],
            "bo": "SINGLE"
          },
          {
            "atomIds": [
              1,
              3
            ],
            "bo": "SINGLE"
          },
          {
            "atomIds": [
              1,
              4
            ],
            "bo": "SINGLE"
          },
          {
            "atomIds": [
              0,
              1
            ],
            "bo": "SINGLE"
          }
        ]
      },
      "vertexId": 85,
      "buildingBlockId": 63,
      "buildingBlockType": "FRAGMENT",
      "isRCV": false,
      "properties": {
        "ATTACHMENT_POINTS": "1#Xlig:1:SINGLE:-0.1020%0.0185%-1.0265 "
      },
      "uniquefyingPropertyKeys": [],
      "allowedMutationTypes": [
        "DELETE",
        "EXTEND",
        "CHANGEBRANCH",
        "CHANGELINK",
        "ADDLINK",
        "DELETELINK",
        "DELETECHAIN"
      ],
      "vertexType": "MolecularFragment"
    },
    {
      "lstAPs": [
        {
          "id": 111083,
          "atomPositionNumber": 1,
          "atomPositionNumberInMol": 23,
          "apClass": {
            "rule": "SubRS",
            "subClass": 1,
            "bndTyp": "SINGLE"
          },
          "dirVec": {
            "x": 0.2985,
            "y": 0.384,
            "z": -0.6258
          }
        }
      ],
      "lstSymAPs": [],
      "mol": {
        "atoms": [
          {
            "elSymbol": "C",
            "p3d": {
              "x": -1.0244,
              "y": -0.2225,
              "z": 1.3991
            }
          },
          {
            "elSymbol": "C",
            "p3d": {
              "x": 0.3973,
              "y": -0.042,
              "z": 0.8195
            }
          },
          {
            "elSymbol": "H",
            "p3d": {
              "x": -1.5635,
              "y": -0.9908,
              "z": 0.8263
            }
          },
          {
            "elSymbol": "H",
            "p3d": {
              "x": -0.941,
              "y": -0.535,
              "z": 2.446
            }
          },
          {
            "elSymbol": "H",
            "p3d": {
              "x": -1.5586,
              "y": 0.7335,
              "z": 1.3382
            }
          },
          {
            "elSymbol": "H",
            "p3d": {
              "x": 0.9335,
              "y": 0.7221,
              "z": 1.4011
            }
          },
          {
            "elSymbol": "H",
            "p3d": {
              "x": 0.927,
              "y": -1.0102,
              "z": 0.9001
            }
          }
        ],
        "bonds": [
          {
            "atomIds": [
              0,
              1
            ],
            "bo": "SINGLE"
          },
          {
            "atomIds": [
              0,
              2
            ],
            "bo": "SINGLE"
          },
          {
            "atomIds": [
              0,
              3
            ],
            "bo": "SINGLE"
          },
          {
            "atomIds": [
              0,
              4
            ],
            "bo": "SINGLE"
          },
          {
            "atomIds": [
              1,
              5
            ],
            "bo": "SINGLE"
          },
          {
            "atomIds": [
              1,
              6
            ],
            "bo": "SINGLE"
          }
        ]
      },
      "vertexId": 84196,
      "buildingBlockId": 31,
      "buildingBlockType": "FRAGMENT",
      "isRCV": false,
      "properties": {
        "ATTACHMENT_POINTS": "2#SubRS:1:SINGLE:0.2985%0.3840%-0.6258 "
      },
      "uniquefyingPropertyKeys": [],
      "allowedMutationTypes": [
        "DELETE",
        "EXTEND",
        "CHANGEBRANCH",
        "CHANGELINK",
        "ADDLINK",
        "DELETELINK",
        "DELETECHAIN"
      ],
      "vertexType": "MolecularFragment"
    },
    {
      "lstAPs": [
        {
          "id": 111084,
          "atomPositionNumber": 1,
          "atomPositionNumberInMol": 30,
          "apClass": {
            "rule": "SubRS",
            "subClass": 1,
            "bndTyp": "SINGLE"
          },
          "dirVec": {
            "x": 0.2985,
            "y": 0.384,
            "z": -0.6258
          }
        }
      ],
      "lstSymAPs": [],
      "mol": {
        "atoms": [
          {
            "elSymbol": "C",
            "p3d": {
              "x": -1.0244,
              "y": -0.2225,
              "z": 1.3991
            }
          },
          {
            "elSymbol": "C",
            "p3d": {
              "x": 0.3973,
              "y": -0.042,
              "z": 0.8195
            }
          },
          {
            "elSymbol": "H",
            "p3d": {
              "x": -1.5635,
              "y": -0.9908,
              "z": 0.8263
            }
          },
          {
            "elSymbol": "H",
            "p3d": {
              "x": -0.941,
              "y": -0.535,
              "z": 2.446
            }
          },
          {
            "elSymbol": "H",
            "p3d": {
              "x": -1.5586,
              "y": 0.7335,
              "z": 1.3382
            }
          },
          {
            "elSymbol": "H",
            "p3d": {
              "x": 0.9335,
              "y": 0.7221,
              "z": 1.4011
            }
          },
          {
            "elSymbol": "H",
            "p3d": {
              "x": 0.927,
              "y": -1.0102,
              "z": 0.9001
            }
          }
        ],
        "bonds": [
          {
            "atomIds": [
              0,
              1
            ],
            "bo": "SINGLE"
          },
          {
            "atomIds": [
              0,
              2
            ],
            "bo": "SINGLE"
          },
          {
            "atomIds": [
              0,
              3
            ],
            "bo": "SINGLE"
          },
          {
            "atomIds": [
              0,
              4
            ],
            "bo": "SINGLE"
          },
          {
            "atomIds": [
              1,
              5
            ],
            "bo": "SINGLE"
          },
          {
            "atomIds": [
              1,
              6
            ],
            "bo": "SINGLE"
          }
        ]
      },
      "vertexId": 84223,
      "buildingBlockId": 31,
      "buildingBlockType": "FRAGMENT",
      "isRCV": false,
      "properties": {
        "ATTACHMENT_POINTS": "2#SubRS:1:SINGLE:0.2985%0.3840%-0.6258 "
      },
      "uniquefyingPropertyKeys": [],
      "allowedMutationTypes": [
        "DELETE",
        "EXTEND",
        "CHANGEBRANCH",
        "CHANGELINK",
        "ADDLINK",
        "DELETELINK",
        "DELETECHAIN"
      ],
      "vertexType": "MolecularFragment"
    }
  ],
  "gEdges": [
    {
      "srcAPID": 111041,
      "trgAPID": 111044,
      "bondType": "SINGLE"
    },
    {
      "srcAPID": 111043,
      "trgAPID": 111047,
      "bondType": "SINGLE"
    },
    {
      "srcAPID": 111042,
      "trgAPID": 111048,
      "bondType": "SINGLE"
    },
    {
      "srcAPID": 111045,
      "trgAPID": 111083,
      "bondType": "SINGLE"
    },
    {
      "srcAPID": 111046,
      "trgAPID": 111084,
      "bondType": "SINGLE"
    }
  ],
  "gRings": [],
  "symVertices": [
    {
      "symIds": [
        84196,
        84223
      ]
    }
  ]
}

> <SMILES>
[Pt](C#O)(SC([H])([H])[H])([C]1N(C([H])([H])C([H])([H])C(N1C(C([H])([H])[H])([H])[H])([H])[H])C(C([H])([H])[H])([H])[H])SC([H])([H])[H]

$$$$
