M00009173
  CDK     04222211593D

 38 38  0  0  0  0  0  0  0  0999 V2000
   -2.3833    0.2373   -0.9358 Pt  0  0  0  0  0  0  0  0  0  0  0  0
   -4.3350    0.2546   -0.9923 C   0  0  0  0  0  0  0  0  0  0  0  0
   -5.4760    0.2604   -1.0257 O   0  0  0  0  0  0  0  0  0  0  0  0
   -2.3819    2.2223   -0.7361 C   0  0  0  0  0  0  0  0  0  0  0  0
   -2.3811    3.3723   -0.6245 N   0  0  0  0  0  0  0  0  0  0  0  0
   -0.1090    0.1634   -0.9165 P   0  0  0  0  0  0  0  0  0  0  0  0
   -0.5004   -0.1390   -3.6162 C   0  0  0  0  0  0  0  0  0  0  0  0
    0.3859   -0.7008   -2.5170 C   0  0  0  0  0  0  0  0  0  0  0  0
   -0.2932    0.9147   -3.8508 H   0  0  0  0  0  0  0  0  0  0  0  0
   -0.3406   -0.6950   -4.5546 H   0  0  0  0  0  0  0  0  0  0  0  0
   -1.5816   -0.2347   -3.3984 H   0  0  0  0  0  0  0  0  0  0  0  0
    0.2288   -1.7992   -2.4115 H   0  0  0  0  0  0  0  0  0  0  0  0
    1.4581   -0.5699   -2.7469 H   0  0  0  0  0  0  0  0  0  0  0  0
    0.8937    2.4212    0.4363 C   0  0  0  0  0  0  0  0  0  0  0  0
    0.8122    1.8107   -0.9508 C   0  0  0  0  0  0  0  0  0  0  0  0
   -0.0955    2.6554    0.8615 H   0  0  0  0  0  0  0  0  0  0  0  0
    1.4323    1.7863    1.1630 H   0  0  0  0  0  0  0  0  0  0  0  0
    1.4301    3.3817    0.3979 H   0  0  0  0  0  0  0  0  0  0  0  0
    0.2850    2.5073   -1.6424 H   0  0  0  0  0  0  0  0  0  0  0  0
    1.8259    1.6706   -1.3747 H   0  0  0  0  0  0  0  0  0  0  0  0
    0.4410   -0.7651    0.4213 N   0  0  0  0  0  0  0  0  0  0  0  0
    1.8636   -1.1116    0.6536 C   0  0  0  0  0  0  0  0  0  0  0  0
    2.5141   -0.7514   -0.1697 H   0  0  0  0  0  0  0  0  0  0  0  0
    1.9573   -2.2242    0.6781 H   0  0  0  0  0  0  0  0  0  0  0  0
    2.3235   -0.5167    1.9992 C   0  0  0  0  0  0  0  0  0  0  0  0
    3.3721   -0.7977    2.2018 H   0  0  0  0  0  0  0  0  0  0  0  0
    2.2984    0.5955    1.9373 H   0  0  0  0  0  0  0  0  0  0  0  0
    1.4100   -0.9894    3.1388 C   0  0  0  0  0  0  0  0  0  0  0  0
    1.7204   -0.5186    4.0908 H   0  0  0  0  0  0  0  0  0  0  0  0
    1.5263   -2.0810    3.2860 H   0  0  0  0  0  0  0  0  0  0  0  0
   -0.0608   -0.6568    2.8489 C   0  0  0  0  0  0  0  0  0  0  0  0
   -0.7093   -1.0728    3.6429 H   0  0  0  0  0  0  0  0  0  0  0  0
   -0.2088    0.4404    2.8763 H   0  0  0  0  0  0  0  0  0  0  0  0
   -0.5032   -1.2102    1.4803 C   0  0  0  0  0  0  0  0  0  0  0  0
   -0.5098   -2.3270    1.5013 H   0  0  0  0  0  0  0  0  0  0  0  0
   -1.5492   -0.8856    1.2551 H   0  0  0  0  0  0  0  0  0  0  0  0
   -2.3857   -1.7494   -1.1425 C   0  0  0  0  0  0  0  0  0  0  0  0
   -2.3742   -2.8982   -1.2641 N   0  0  0  0  0  0  0  0  0  0  0  0
  2  3  3  0  0  0  0
  1  2  1  0  0  0  0
  4  5  3  0  0  0  0
  1  4  1  0  0  0  0
  1  6  1  0  0  0  0
  7  8  1  0  0  0  0
  7  9  1  0  0  0  0
  7 10  1  0  0  0  0
  7 11  1  0  0  0  0
  8 12  1  0  0  0  0
  8 13  1  0  0  0  0
  6  8  1  0  0  0  0
 14 15  1  0  0  0  0
 14 16  1  0  0  0  0
 14 17  1  0  0  0  0
 14 18  1  0  0  0  0
 15 19  1  0  0  0  0
 15 20  1  0  0  0  0
  6 15  1  0  0  0  0
 22 21  1  0  0  0  0
 23 22  1  0  0  0  0
 24 22  1  0  0  0  0
 25 22  1  0  0  0  0
 26 25  1  0  0  0  0
 27 25  1  0  0  0  0
 28 25  1  0  0  0  0
 29 28  1  0  0  0  0
 30 28  1  0  0  0  0
 31 28  1  0  0  0  0
 32 31  1  0  0  0  0
 33 31  1  0  0  0  0
 34 21  1  0  0  0  0
 35 34  1  0  0  0  0
 36 34  1  0  0  0  0
 31 34  1  0  0  0  0
  6 21  1  0  0  0  0
 37 38  3  0  0  0  0
  1 37  1  0  0  0  0
M  END
> <PM6_ENERGY>
-39.232

> <UID>
UIYZQQHHXVIYIH-AOCZUFKRNA-N

> <FITNESS>
1.1415

> <GCODE>
10132

> <GraphENC>
10132 72_1_0,81_66_1,101_4_1,87_66_1,206407_32_1,206577_32_1,206398_8_1, 72_0_81_0_SINGLE_Xlig:0_Xlig:1,72_2_101_3_SINGLE_scaff:0_MMonoAminoPhosphine:1,72_1_87_0_SINGLE_Xlig:0_Xlig:1,101_1_206407_0_SINGLE_LMonoAminoPhosphineSubR:0_SubRS:1,101_2_206577_0_SINGLE_LMonoAminoPhosphineSubR:0_SubRS:1,101_0_206398_0_SINGLE_LMonoAminoPhosphineN:0_LAminoPhosphineCycloN:1, SymmetricSet [symIds=[206407, 206577]] 

> <GraphJson>
{
  "graphId": 10132,
  "gVertices": [
    {
      "lstAPs": [
        {
          "id": 269815,
          "atomPositionNumber": 0,
          "atomPositionNumberInMol": 0,
          "apClass": {
            "rule": "Xlig",
            "subClass": 0,
            "bndTyp": "SINGLE"
          },
          "dirVec": {
            "x": -2.3339,
            "y": -0.0087,
            "z": 0.8172
          }
        },
        {
          "id": 269816,
          "atomPositionNumber": 0,
          "atomPositionNumberInMol": 0,
          "apClass": {
            "rule": "Xlig",
            "subClass": 0,
            "bndTyp": "SINGLE"
          },
          "dirVec": {
            "x": 2.336,
            "y": -5.0E-4,
            "z": 0.829
          }
        },
        {
          "id": 269817,
          "atomPositionNumber": 0,
          "atomPositionNumberInMol": 0,
          "apClass": {
            "rule": "scaff",
            "subClass": 0,
            "bndTyp": "SINGLE"
          },
          "dirVec": {
            "x": -0.0095,
            "y": 0.0046,
            "z": -1.7113
          }
        }
      ],
      "lstSymAPs": [
        {
          "symIds": [
            0,
            1
          ]
        }
      ],
      "mol": {
        "atoms": [
          {
            "elSymbol": "Pt",
            "p3d": {
              "x": -0.0098,
              "y": 0.0049,
              "z": 0.6289
            }
          },
          {
            "elSymbol": "C",
            "p3d": {
              "x": -6.0E-4,
              "y": 0.0016,
              "z": 2.5609
            }
          },
          {
            "elSymbol": "O",
            "p3d": {
              "x": 0.0025,
              "y": -0.0041,
              "z": 3.6974
            }
          },
          {
            "elSymbol": "Du",
            "p3d": {
              "x": -0.007,
              "y": 1.0013,
              "z": 0.6372
            }
          },
          {
            "elSymbol": "Du",
            "p3d": {
              "x": -0.0014,
              "y": 0.9902,
              "z": 2.5698
            }
          }
        ],
        "bonds": [
          {
            "atomIds": [
              1,
              2
            ],
            "bo": "TRIPLE"
          },
          {
            "atomIds": [
              0,
              1
            ],
            "bo": "SINGLE"
          },
          {
            "atomIds": [
              3,
              0
            ],
            "bo": "SINGLE"
          },
          {
            "atomIds": [
              4,
              1
            ],
            "bo": "SINGLE"
          }
        ]
      },
      "vertexId": 72,
      "buildingBlockId": 0,
      "buildingBlockType": "SCAFFOLD",
      "isRCV": false,
      "properties": {
        "ATTACHMENT_POINTS": "1#Xlig:0:SINGLE:-2.3339%-0.0087%0.8172,Xlig:0:SINGLE:2.3360%-0.0005%0.8290,scaff:0:SINGLE:-0.0095%0.0046%-1.7113 "
      },
      "uniquefyingPropertyKeys": [],
      "allowedMutationTypes": [
        "DELETE",
        "EXTEND",
        "CHANGEBRANCH",
        "CHANGELINK",
        "ADDLINK",
        "DELETELINK",
        "DELETECHAIN"
      ],
      "vertexType": "MolecularFragment"
    },
    {
      "lstAPs": [
        {
          "id": 269818,
          "atomPositionNumber": 0,
          "atomPositionNumberInMol": 5,
          "apClass": {
            "rule": "Xlig",
            "subClass": 1,
            "bndTyp": "SINGLE"
          },
          "dirVec": {
            "x": 0.0192,
            "y": -0.0048,
            "z": -0.5645
          }
        }
      ],
      "lstSymAPs": [],
      "mol": {
        "atoms": [
          {
            "elSymbol": "C",
            "p3d": {
              "x": -1.967,
              "y": -0.0075,
              "z": -0.4937
            }
          },
          {
            "elSymbol": "N",
            "p3d": {
              "x": -3.1263,
              "y": -0.0054,
              "z": -0.4354
            }
          },
          {
            "elSymbol": "Du",
            "p3d": {
              "x": -1.9744,
              "y": 0.9926,
              "z": -0.5036
            }
          }
        ],
        "bonds": [
          {
            "atomIds": [
              0,
              1
            ],
            "bo": "TRIPLE"
          },
          {
            "atomIds": [
              2,
              0
            ],
            "bo": "SINGLE"
          }
        ]
      },
      "vertexId": 81,
      "buildingBlockId": 65,
      "buildingBlockType": "FRAGMENT",
      "isRCV": false,
      "properties": {
        "ATTACHMENT_POINTS": "1#Xlig:1:SINGLE:0.0192%-0.0048%-0.5645 "
      },
      "uniquefyingPropertyKeys": [],
      "allowedMutationTypes": [
        "DELETE",
        "EXTEND",
        "CHANGEBRANCH",
        "CHANGELINK",
        "ADDLINK",
        "DELETELINK",
        "DELETECHAIN"
      ],
      "vertexType": "MolecularFragment"
    },
    {
      "lstAPs": [
        {
          "id": 269819,
          "atomPositionNumber": 0,
          "atomPositionNumberInMol": 8,
          "apClass": {
            "rule": "LMonoAminoPhosphineN",
            "subClass": 0,
            "bndTyp": "SINGLE"
          },
          "dirVec": {
            "x": 3.1471,
            "y": 10.0719,
            "z": 6.8843
          }
        },
        {
          "id": 269820,
          "atomPositionNumber": 0,
          "atomPositionNumberInMol": 8,
          "apClass": {
            "rule": "LMonoAminoPhosphineSubR",
            "subClass": 0,
            "bndTyp": "SINGLE"
          },
          "dirVec": {
            "x": 0.3842,
            "y": 9.4902,
            "z": 6.7015
          }
        },
        {
          "id": 269821,
          "atomPositionNumber": 0,
          "atomPositionNumberInMol": 8,
          "apClass": {
            "rule": "LMonoAminoPhosphineSubR",
            "subClass": 0,
            "bndTyp": "SINGLE"
          },
          "dirVec": {
            "x": 2.2197,
            "y": 7.8057,
            "z": 8.2724
          }
        },
        {
          "id": 269822,
          "atomPositionNumber": 0,
          "atomPositionNumberInMol": 8,
          "apClass": {
            "rule": "MMonoAminoPhosphine",
            "subClass": 1,
            "bndTyp": "SINGLE"
          },
          "dirVec": {
            "x": 2.6023,
            "y": 7.6121,
            "z": 4.8117
          }
        }
      ],
      "lstSymAPs": [
        {
          "symIds": [
            1,
            2
          ]
        }
      ],
      "mol": {
        "atoms": [
          {
            "elSymbol": "P",
            "p3d": {
              "x": 2.1045,
              "y": 8.7901,
              "z": 6.7495
            }
          }
        ],
        "bonds": []
      },
      "vertexId": 101,
      "buildingBlockId": 3,
      "buildingBlockType": "FRAGMENT",
      "isRCV": false,
      "properties": {
        "ATTACHMENT_POINTS": "1#LMonoAminoPhosphineN:0:SINGLE:3.1471%10.0719%6.8843,LMonoAminoPhosphineSubR:0:SINGLE:0.3842%9.4902%6.7015,LMonoAminoPhosphineSubR:0:SINGLE:2.2197%7.8057%8.2724,MMonoAminoPhosphine:1:SINGLE:2.6023%7.6121%4.8117 "
      },
      "uniquefyingPropertyKeys": [],
      "allowedMutationTypes": [
        "DELETE",
        "EXTEND",
        "CHANGEBRANCH",
        "CHANGELINK",
        "ADDLINK",
        "DELETELINK",
        "DELETECHAIN"
      ],
      "vertexType": "MolecularFragment"
    },
    {
      "lstAPs": [
        {
          "id": 269823,
          "atomPositionNumber": 0,
          "atomPositionNumberInMol": 39,
          "apClass": {
            "rule": "Xlig",
            "subClass": 1,
            "bndTyp": "SINGLE"
          },
          "dirVec": {
            "x": 0.0192,
            "y": -0.0048,
            "z": -0.5645
          }
        }
      ],
      "lstSymAPs": [],
      "mol": {
        "atoms": [
          {
            "elSymbol": "C",
            "p3d": {
              "x": -1.967,
              "y": -0.0075,
              "z": -0.4937
            }
          },
          {
            "elSymbol": "N",
            "p3d": {
              "x": -3.1263,
              "y": -0.0054,
              "z": -0.4354
            }
          },
          {
            "elSymbol": "Du",
            "p3d": {
              "x": -1.9744,
              "y": 0.9926,
              "z": -0.5036
            }
          }
        ],
        "bonds": [
          {
            "atomIds": [
              0,
              1
            ],
            "bo": "TRIPLE"
          },
          {
            "atomIds": [
              2,
              0
            ],
            "bo": "SINGLE"
          }
        ]
      },
      "vertexId": 87,
      "buildingBlockId": 65,
      "buildingBlockType": "FRAGMENT",
      "isRCV": false,
      "properties": {
        "ATTACHMENT_POINTS": "1#Xlig:1:SINGLE:0.0192%-0.0048%-0.5645 "
      },
      "uniquefyingPropertyKeys": [],
      "allowedMutationTypes": [
        "DELETE",
        "EXTEND",
        "CHANGEBRANCH",
        "CHANGELINK",
        "ADDLINK",
        "DELETELINK",
        "DELETECHAIN"
      ],
      "vertexType": "MolecularFragment"
    },
    {
      "lstAPs": [
        {
          "id": 269860,
          "atomPositionNumber": 1,
          "atomPositionNumberInMol": 10,
          "apClass": {
            "rule": "SubRS",
            "subClass": 1,
            "bndTyp": "SINGLE"
          },
          "dirVec": {
            "x": 0.2985,
            "y": 0.384,
            "z": -0.6258
          }
        }
      ],
      "lstSymAPs": [],
      "mol": {
        "atoms": [
          {
            "elSymbol": "C",
            "p3d": {
              "x": -1.0244,
              "y": -0.2225,
              "z": 1.3991
            }
          },
          {
            "elSymbol": "C",
            "p3d": {
              "x": 0.3973,
              "y": -0.042,
              "z": 0.8195
            }
          },
          {
            "elSymbol": "H",
            "p3d": {
              "x": -1.5635,
              "y": -0.9908,
              "z": 0.8263
            }
          },
          {
            "elSymbol": "H",
            "p3d": {
              "x": -0.941,
              "y": -0.535,
              "z": 2.446
            }
          },
          {
            "elSymbol": "H",
            "p3d": {
              "x": -1.5586,
              "y": 0.7335,
              "z": 1.3382
            }
          },
          {
            "elSymbol": "H",
            "p3d": {
              "x": 0.9335,
              "y": 0.7221,
              "z": 1.4011
            }
          },
          {
            "elSymbol": "H",
            "p3d": {
              "x": 0.927,
              "y": -1.0102,
              "z": 0.9001
            }
          }
        ],
        "bonds": [
          {
            "atomIds": [
              0,
              1
            ],
            "bo": "SINGLE"
          },
          {
            "atomIds": [
              0,
              2
            ],
            "bo": "SINGLE"
          },
          {
            "atomIds": [
              0,
              3
            ],
            "bo": "SINGLE"
          },
          {
            "atomIds": [
              0,
              4
            ],
            "bo": "SINGLE"
          },
          {
            "atomIds": [
              1,
              5
            ],
            "bo": "SINGLE"
          },
          {
            "atomIds": [
              1,
              6
            ],
            "bo": "SINGLE"
          }
        ]
      },
      "vertexId": 206407,
      "buildingBlockId": 31,
      "buildingBlockType": "FRAGMENT",
      "isRCV": false,
      "properties": {
        "ATTACHMENT_POINTS": "2#SubRS:1:SINGLE:0.2985%0.3840%-0.6258 "
      },
      "uniquefyingPropertyKeys": [],
      "allowedMutationTypes": [
        "DELETE",
        "EXTEND",
        "CHANGEBRANCH",
        "CHANGELINK",
        "ADDLINK",
        "DELETELINK",
        "DELETECHAIN"
      ],
      "vertexType": "MolecularFragment"
    },
    {
      "lstAPs": [
        {
          "id": 269861,
          "atomPositionNumber": 1,
          "atomPositionNumberInMol": 17,
          "apClass": {
            "rule": "SubRS",
            "subClass": 1,
            "bndTyp": "SINGLE"
          },
          "dirVec": {
            "x": 0.2985,
            "y": 0.384,
            "z": -0.6258
          }
        }
      ],
      "lstSymAPs": [],
      "mol": {
        "atoms": [
          {
            "elSymbol": "C",
            "p3d": {
              "x": -1.0244,
              "y": -0.2225,
              "z": 1.3991
            }
          },
          {
            "elSymbol": "C",
            "p3d": {
              "x": 0.3973,
              "y": -0.042,
              "z": 0.8195
            }
          },
          {
            "elSymbol": "H",
            "p3d": {
              "x": -1.5635,
              "y": -0.9908,
              "z": 0.8263
            }
          },
          {
            "elSymbol": "H",
            "p3d": {
              "x": -0.941,
              "y": -0.535,
              "z": 2.446
            }
          },
          {
            "elSymbol": "H",
            "p3d": {
              "x": -1.5586,
              "y": 0.7335,
              "z": 1.3382
            }
          },
          {
            "elSymbol": "H",
            "p3d": {
              "x": 0.9335,
              "y": 0.7221,
              "z": 1.4011
            }
          },
          {
            "elSymbol": "H",
            "p3d": {
              "x": 0.927,
              "y": -1.0102,
              "z": 0.9001
            }
          }
        ],
        "bonds": [
          {
            "atomIds": [
              0,
              1
            ],
            "bo": "SINGLE"
          },
          {
            "atomIds": [
              0,
              2
            ],
            "bo": "SINGLE"
          },
          {
            "atomIds": [
              0,
              3
            ],
            "bo": "SINGLE"
          },
          {
            "atomIds": [
              0,
              4
            ],
            "bo": "SINGLE"
          },
          {
            "atomIds": [
              1,
              5
            ],
            "bo": "SINGLE"
          },
          {
            "atomIds": [
              1,
              6
            ],
            "bo": "SINGLE"
          }
        ]
      },
      "vertexId": 206577,
      "buildingBlockId": 31,
      "buildingBlockType": "FRAGMENT",
      "isRCV": false,
      "properties": {
        "ATTACHMENT_POINTS": "2#SubRS:1:SINGLE:0.2985%0.3840%-0.6258 "
      },
      "uniquefyingPropertyKeys": [],
      "allowedMutationTypes": [
        "DELETE",
        "EXTEND",
        "CHANGEBRANCH",
        "CHANGELINK",
        "ADDLINK",
        "DELETELINK",
        "DELETECHAIN"
      ],
      "vertexType": "MolecularFragment"
    },
    {
      "lstAPs": [
        {
          "id": 269862,
          "atomPositionNumber": 0,
          "atomPositionNumberInMol": 23,
          "apClass": {
            "rule": "LAminoPhosphineCycloN",
            "subClass": 1,
            "bndTyp": "SINGLE"
          },
          "dirVec": {
            "x": 4.555,
            "y": 2.7674,
            "z": 17.4338
          }
        }
      ],
      "lstSymAPs": [],
      "mol": {
        "atoms": [
          {
            "elSymbol": "N",
            "p3d": {
              "x": 2.9381,
              "y": 2.7068,
              "z": 17.7892
            }
          },
          {
            "elSymbol": "C",
            "p3d": {
              "x": 2.2822,
              "y": 1.6786,
              "z": 18.5885
            }
          },
          {
            "elSymbol": "H",
            "p3d": {
              "x": 3.041,
              "y": 1.1815,
              "z": 19.2164
            }
          },
          {
            "elSymbol": "H",
            "p3d": {
              "x": 1.8455,
              "y": 0.9233,
              "z": 17.9289
            }
          },
          {
            "elSymbol": "C",
            "p3d": {
              "x": 1.221,
              "y": 2.2587,
              "z": 19.4673
            }
          },
          {
            "elSymbol": "H",
            "p3d": {
              "x": 0.7008,
              "y": 1.4356,
              "z": 19.9909
            }
          },
          {
            "elSymbol": "H",
            "p3d": {
              "x": 1.6761,
              "y": 2.9055,
              "z": 20.224
            }
          },
          {
            "elSymbol": "C",
            "p3d": {
              "x": 0.2145,
              "y": 3.0313,
              "z": 18.6782
            }
          },
          {
            "elSymbol": "H",
            "p3d": {
              "x": -0.4814,
              "y": 3.5202,
              "z": 19.3328
            }
          },
          {
            "elSymbol": "H",
            "p3d": {
              "x": -0.3461,
              "y": 2.3431,
              "z": 18.0363
            }
          },
          {
            "elSymbol": "C",
            "p3d": {
              "x": 0.9189,
              "y": 4.0677,
              "z": 17.8031
            }
          },
          {
            "elSymbol": "H",
            "p3d": {
              "x": 0.1705,
              "y": 4.5445,
              "z": 17.1575
            }
          },
          {
            "elSymbol": "H",
            "p3d": {
              "x": 1.3757,
              "y": 4.8286,
              "z": 18.4283
            }
          },
          {
            "elSymbol": "C",
            "p3d": {
              "x": 1.9754,
              "y": 3.4167,
              "z": 16.9636
            }
          },
          {
            "elSymbol": "H",
            "p3d": {
              "x": 1.4943,
              "y": 2.7385,
              "z": 16.2522
            }
          },
          {
            "elSymbol": "H",
            "p3d": {
              "x": 2.4831,
              "y": 4.1915,
              "z": 16.365
            }
          }
        ],
        "bonds": [
          {
            "atomIds": [
              1,
              0
            ],
            "bo": "SINGLE"
          },
          {
            "atomIds": [
              2,
              1
            ],
            "bo": "SINGLE"
          },
          {
            "atomIds": [
              3,
              1
            ],
            "bo": "SINGLE"
          },
          {
            "atomIds": [
              4,
              1
            ],
            "bo": "SINGLE"
          },
          {
            "atomIds": [
              5,
              4
            ],
            "bo": "SINGLE"
          },
          {
            "atomIds": [
              6,
              4
            ],
            "bo": "SINGLE"
          },
          {
            "atomIds": [
              7,
              4
            ],
            "bo": "SINGLE"
          },
          {
            "atomIds": [
              8,
              7
            ],
            "bo": "SINGLE"
          },
          {
            "atomIds": [
              9,
              7
            ],
            "bo": "SINGLE"
          },
          {
            "atomIds": [
              10,
              7
            ],
            "bo": "SINGLE"
          },
          {
            "atomIds": [
              11,
              10
            ],
            "bo": "SINGLE"
          },
          {
            "atomIds": [
              12,
              10
            ],
            "bo": "SINGLE"
          },
          {
            "atomIds": [
              13,
              0
            ],
            "bo": "SINGLE"
          },
          {
            "atomIds": [
              14,
              13
            ],
            "bo": "SINGLE"
          },
          {
            "atomIds": [
              15,
              13
            ],
            "bo": "SINGLE"
          },
          {
            "atomIds": [
              10,
              13
            ],
            "bo": "SINGLE"
          }
        ]
      },
      "vertexId": 206398,
      "buildingBlockId": 7,
      "buildingBlockType": "FRAGMENT",
      "isRCV": false,
      "properties": {
        "ATTACHMENT_POINTS": "1#LAminoPhosphineCycloN:1:SINGLE:4.5550%2.7674%17.4338 "
      },
      "uniquefyingPropertyKeys": [],
      "allowedMutationTypes": [
        "DELETE",
        "EXTEND",
        "CHANGEBRANCH",
        "CHANGELINK",
        "ADDLINK",
        "DELETELINK",
        "DELETECHAIN"
      ],
      "vertexType": "MolecularFragment"
    }
  ],
  "gEdges": [
    {
      "srcAPID": 269815,
      "trgAPID": 269818,
      "bondType": "SINGLE"
    },
    {
      "srcAPID": 269817,
      "trgAPID": 269822,
      "bondType": "SINGLE"
    },
    {
      "srcAPID": 269816,
      "trgAPID": 269823,
      "bondType": "SINGLE"
    },
    {
      "srcAPID": 269820,
      "trgAPID": 269860,
      "bondType": "SINGLE"
    },
    {
      "srcAPID": 269821,
      "trgAPID": 269861,
      "bondType": "SINGLE"
    },
    {
      "srcAPID": 269819,
      "trgAPID": 269862,
      "bondType": "SINGLE"
    }
  ],
  "gRings": [],
  "symVertices": [
    {
      "symIds": [
        206407,
        206577
      ]
    }
  ]
}

> <SMILES>
[Pt](C#O)(C#N)([P](C(C([H])([H])[H])([H])[H])(C(C([H])([H])[H])([H])[H])N1C([H])([H])C([H])([H])C([H])([H])C([H])([H])C1([H])[H])C#N

$$$$
