M00000624
  CDK     04222208523D

 31 31  0  0  0  0  0  0  0  0999 V2000
   -2.0020   -0.3834    0.4726 Pt  0  0  0  0  0  0  0  0  0  0  0  0
   -3.9390   -0.3590    0.1757 C   0  0  0  0  0  0  0  0  0  0  0  0
   -5.0649   -0.3369   -0.0043 O   0  0  0  0  0  0  0  0  0  0  0  0
   -2.3135    1.8072    1.1259 S   0  0  0  0  0  0  0  0  0  0  0  0
   -2.5620    1.4561    2.8867 C   0  0  0  0  0  0  0  0  0  0  0  0
   -1.7498    1.8870    3.4807 H   0  0  0  0  0  0  0  0  0  0  0  0
   -2.6068    0.3756    3.0753 H   0  0  0  0  0  0  0  0  0  0  0  0
   -3.5060    1.9036    3.2220 H   0  0  0  0  0  0  0  0  0  0  0  0
    0.2665   -0.3679    0.7629 P   0  0  0  0  0  0  0  0  0  0  0  0
    0.9847    0.9177    1.9110 C   0  0  0  0  0  0  0  0  0  0  0  0
    0.6122    0.7873    2.9362 H   0  0  0  0  0  0  0  0  0  0  0  0
    2.0793    0.8815    1.9384 H   0  0  0  0  0  0  0  0  0  0  0  0
    0.6874    1.9323    1.5904 H   0  0  0  0  0  0  0  0  0  0  0  0
    0.8881   -0.1098   -0.8182 N   0  0  0  0  0  0  0  0  0  0  0  0
    2.3082    0.0924   -1.2027 C   0  0  0  0  0  0  0  0  0  0  0  0
    2.9033   -0.8270   -1.0083 H   0  0  0  0  0  0  0  0  0  0  0  0
    2.7648    0.9256   -0.6278 H   0  0  0  0  0  0  0  0  0  0  0  0
    2.2668    0.4126   -2.7108 C   0  0  0  0  0  0  0  0  0  0  0  0
    2.4314    1.4913   -2.8832 H   0  0  0  0  0  0  0  0  0  0  0  0
    3.0632   -0.1206   -3.2556 H   0  0  0  0  0  0  0  0  0  0  0  0
    0.8723   -0.0046   -3.2182 C   0  0  0  0  0  0  0  0  0  0  0  0
    0.9230   -0.9847   -3.7267 H   0  0  0  0  0  0  0  0  0  0  0  0
    0.4855    0.7145   -3.9594 H   0  0  0  0  0  0  0  0  0  0  0  0
   -0.0455   -0.0847   -1.9839 C   0  0  0  0  0  0  0  0  0  0  0  0
   -0.7212    0.8012   -1.9219 H   0  0  0  0  0  0  0  0  0  0  0  0
   -0.6837   -1.0021   -2.0100 H   0  0  0  0  0  0  0  0  0  0  0  0
    0.8754   -2.0126    1.4100 C   0  0  0  0  0  0  0  0  0  0  0  0
    0.4214   -2.8399    0.8285 H   0  0  0  0  0  0  0  0  0  0  0  0
    1.9623   -2.1174    1.3345 H   0  0  0  0  0  0  0  0  0  0  0  0
    0.5824   -2.1692    2.4559 H   0  0  0  0  0  0  0  0  0  0  0  0
   -2.1840   -2.6661   -0.2759 Cl  0  0  0  0  0  0  0  0  0  0  0  0
  2  3  3  0  0  0  0
  1  2  1  0  0  0  0
  5  6  1  0  0  0  0
  5  7  1  0  0  0  0
  5  8  1  0  0  0  0
  4  5  1  0  0  0  0
  1  4  1  0  0  0  0
  1  9  1  0  0  0  0
 10 11  1  0  0  0  0
 10 12  1  0  0  0  0
 10 13  1  0  0  0  0
  9 10  1  0  0  0  0
 15 14  1  0  0  0  0
 16 15  1  0  0  0  0
 17 15  1  0  0  0  0
 18 15  1  0  0  0  0
 19 18  1  0  0  0  0
 20 18  1  0  0  0  0
 21 18  1  0  0  0  0
 22 21  1  0  0  0  0
 23 21  1  0  0  0  0
 24 14  1  0  0  0  0
 25 24  1  0  0  0  0
 26 24  1  0  0  0  0
 21 24  1  0  0  0  0
  9 14  1  0  0  0  0
 27 28  1  0  0  0  0
 27 29  1  0  0  0  0
 27 30  1  0  0  0  0
  9 27  1  0  0  0  0
  1 31  1  0  0  0  0
M  END
> <PM6_ENERGY>
-317.180

> <UID>
YNDNTTUTBVTVKZ-MNLHELKONA-L

> <FITNESS>
1.14041

> <GCODE>
1181

> <GraphENC>
1181 72_1_0,79_64_1,101_4_1,88_67_1,19715_31_1,19706_7_1,19723_31_1, 72_0_79_0_SINGLE_Xlig:0_Xlig:1,72_2_101_3_SINGLE_scaff:0_MMonoAminoPhosphine:1,72_1_88_0_SINGLE_Xlig:0_Xlig:1,101_1_19715_0_SINGLE_LMonoAminoPhosphineSubR:0_SubRS:1,101_0_19706_0_SINGLE_LMonoAminoPhosphineN:0_LAminoPhosphineCycloN:1,101_2_19723_0_SINGLE_LMonoAminoPhosphineSubR:0_SubRS:1, SymmetricSet [symIds=[19715, 19723]] 

> <GraphJson>
{
  "graphId": 1181,
  "gVertices": [
    {
      "lstAPs": [
        {
          "id": 27295,
          "atomPositionNumber": 0,
          "atomPositionNumberInMol": 0,
          "apClass": {
            "rule": "Xlig",
            "subClass": 0,
            "bndTyp": "SINGLE"
          },
          "dirVec": {
            "x": -2.3339,
            "y": -0.0087,
            "z": 0.8172
          }
        },
        {
          "id": 27296,
          "atomPositionNumber": 0,
          "atomPositionNumberInMol": 0,
          "apClass": {
            "rule": "Xlig",
            "subClass": 0,
            "bndTyp": "SINGLE"
          },
          "dirVec": {
            "x": 2.336,
            "y": -5.0E-4,
            "z": 0.829
          }
        },
        {
          "id": 27297,
          "atomPositionNumber": 0,
          "atomPositionNumberInMol": 0,
          "apClass": {
            "rule": "scaff",
            "subClass": 0,
            "bndTyp": "SINGLE"
          },
          "dirVec": {
            "x": -0.0095,
            "y": 0.0046,
            "z": -1.7113
          }
        }
      ],
      "lstSymAPs": [
        {
          "symIds": [
            0,
            1
          ]
        }
      ],
      "mol": {
        "atoms": [
          {
            "elSymbol": "Pt",
            "p3d": {
              "x": -0.0098,
              "y": 0.0049,
              "z": 0.6289
            }
          },
          {
            "elSymbol": "C",
            "p3d": {
              "x": -6.0E-4,
              "y": 0.0016,
              "z": 2.5609
            }
          },
          {
            "elSymbol": "O",
            "p3d": {
              "x": 0.0025,
              "y": -0.0041,
              "z": 3.6974
            }
          },
          {
            "elSymbol": "Du",
            "p3d": {
              "x": -0.007,
              "y": 1.0013,
              "z": 0.6372
            }
          },
          {
            "elSymbol": "Du",
            "p3d": {
              "x": -0.0014,
              "y": 0.9902,
              "z": 2.5698
            }
          }
        ],
        "bonds": [
          {
            "atomIds": [
              1,
              2
            ],
            "bo": "TRIPLE"
          },
          {
            "atomIds": [
              0,
              1
            ],
            "bo": "SINGLE"
          },
          {
            "atomIds": [
              3,
              0
            ],
            "bo": "SINGLE"
          },
          {
            "atomIds": [
              4,
              1
            ],
            "bo": "SINGLE"
          }
        ]
      },
      "vertexId": 72,
      "buildingBlockId": 0,
      "buildingBlockType": "SCAFFOLD",
      "isRCV": false,
      "properties": {
        "ATTACHMENT_POINTS": "1#Xlig:0:SINGLE:-2.3339%-0.0087%0.8172,Xlig:0:SINGLE:2.3360%-0.0005%0.8290,scaff:0:SINGLE:-0.0095%0.0046%-1.7113 "
      },
      "uniquefyingPropertyKeys": [],
      "allowedMutationTypes": [
        "DELETE",
        "EXTEND",
        "CHANGEBRANCH",
        "CHANGELINK",
        "ADDLINK",
        "DELETELINK",
        "DELETECHAIN"
      ],
      "vertexType": "MolecularFragment"
    },
    {
      "lstAPs": [
        {
          "id": 27298,
          "atomPositionNumber": 0,
          "atomPositionNumberInMol": 5,
          "apClass": {
            "rule": "Xlig",
            "subClass": 1,
            "bndTyp": "SINGLE"
          },
          "dirVec": {
            "x": -0.102,
            "y": 0.0185,
            "z": -1.0265
          }
        }
      ],
      "lstSymAPs": [],
      "mol": {
        "atoms": [
          {
            "elSymbol": "S",
            "p3d": {
              "x": -0.3267,
              "y": 2.3403,
              "z": -1.0022
            }
          },
          {
            "elSymbol": "C",
            "p3d": {
              "x": -0.626,
              "y": 2.4866,
              "z": 0.7805
            }
          },
          {
            "elSymbol": "H",
            "p3d": {
              "x": 0.1766,
              "y": 3.089,
              "z": 1.2414
            }
          },
          {
            "elSymbol": "H",
            "p3d": {
              "x": -0.651,
              "y": 1.5065,
              "z": 1.2643
            }
          },
          {
            "elSymbol": "H",
            "p3d": {
              "x": -1.5658,
              "y": 2.981,
              "z": 0.9515
            }
          }
        ],
        "bonds": [
          {
            "atomIds": [
              1,
              2
            ],
            "bo": "SINGLE"
          },
          {
            "atomIds": [
              1,
              3
            ],
            "bo": "SINGLE"
          },
          {
            "atomIds": [
              1,
              4
            ],
            "bo": "SINGLE"
          },
          {
            "atomIds": [
              0,
              1
            ],
            "bo": "SINGLE"
          }
        ]
      },
      "vertexId": 79,
      "buildingBlockId": 63,
      "buildingBlockType": "FRAGMENT",
      "isRCV": false,
      "properties": {
        "ATTACHMENT_POINTS": "1#Xlig:1:SINGLE:-0.1020%0.0185%-1.0265 "
      },
      "uniquefyingPropertyKeys": [],
      "allowedMutationTypes": [
        "DELETE",
        "EXTEND",
        "CHANGEBRANCH",
        "CHANGELINK",
        "ADDLINK",
        "DELETELINK",
        "DELETECHAIN"
      ],
      "vertexType": "MolecularFragment"
    },
    {
      "lstAPs": [
        {
          "id": 27299,
          "atomPositionNumber": 0,
          "atomPositionNumberInMol": 10,
          "apClass": {
            "rule": "LMonoAminoPhosphineN",
            "subClass": 0,
            "bndTyp": "SINGLE"
          },
          "dirVec": {
            "x": 3.1471,
            "y": 10.0719,
            "z": 6.8843
          }
        },
        {
          "id": 27300,
          "atomPositionNumber": 0,
          "atomPositionNumberInMol": 10,
          "apClass": {
            "rule": "LMonoAminoPhosphineSubR",
            "subClass": 0,
            "bndTyp": "SINGLE"
          },
          "dirVec": {
            "x": 0.3842,
            "y": 9.4902,
            "z": 6.7015
          }
        },
        {
          "id": 27301,
          "atomPositionNumber": 0,
          "atomPositionNumberInMol": 10,
          "apClass": {
            "rule": "LMonoAminoPhosphineSubR",
            "subClass": 0,
            "bndTyp": "SINGLE"
          },
          "dirVec": {
            "x": 2.2197,
            "y": 7.8057,
            "z": 8.2724
          }
        },
        {
          "id": 27302,
          "atomPositionNumber": 0,
          "atomPositionNumberInMol": 10,
          "apClass": {
            "rule": "MMonoAminoPhosphine",
            "subClass": 1,
            "bndTyp": "SINGLE"
          },
          "dirVec": {
            "x": 2.6023,
            "y": 7.6121,
            "z": 4.8117
          }
        }
      ],
      "lstSymAPs": [
        {
          "symIds": [
            1,
            2
          ]
        }
      ],
      "mol": {
        "atoms": [
          {
            "elSymbol": "P",
            "p3d": {
              "x": 2.1045,
              "y": 8.7901,
              "z": 6.7495
            }
          }
        ],
        "bonds": []
      },
      "vertexId": 101,
      "buildingBlockId": 3,
      "buildingBlockType": "FRAGMENT",
      "isRCV": false,
      "properties": {
        "ATTACHMENT_POINTS": "1#LMonoAminoPhosphineN:0:SINGLE:3.1471%10.0719%6.8843,LMonoAminoPhosphineSubR:0:SINGLE:0.3842%9.4902%6.7015,LMonoAminoPhosphineSubR:0:SINGLE:2.2197%7.8057%8.2724,MMonoAminoPhosphine:1:SINGLE:2.6023%7.6121%4.8117 "
      },
      "uniquefyingPropertyKeys": [],
      "allowedMutationTypes": [
        "DELETE",
        "EXTEND",
        "CHANGEBRANCH",
        "CHANGELINK",
        "ADDLINK",
        "DELETELINK",
        "DELETECHAIN"
      ],
      "vertexType": "MolecularFragment"
    },
    {
      "lstAPs": [
        {
          "id": 27303,
          "atomPositionNumber": 0,
          "atomPositionNumberInMol": 32,
          "apClass": {
            "rule": "Xlig",
            "subClass": 1,
            "bndTyp": "SINGLE"
          },
          "dirVec": {
            "x": -0.0053,
            "y": -0.0027,
            "z": 0.63
          }
        }
      ],
      "lstSymAPs": [],
      "mol": {
        "atoms": [
          {
            "elSymbol": "Cl",
            "p3d": {
              "x": 2.3243,
              "y": -0.0063,
              "z": 0.8189
            }
          }
        ],
        "bonds": []
      },
      "vertexId": 88,
      "buildingBlockId": 66,
      "buildingBlockType": "FRAGMENT",
      "isRCV": false,
      "properties": {
        "ATTACHMENT_POINTS": "1#Xlig:1:SINGLE:-0.0053%-0.0027%0.6300 "
      },
      "uniquefyingPropertyKeys": [],
      "allowedMutationTypes": [
        "DELETE",
        "EXTEND",
        "CHANGEBRANCH",
        "CHANGELINK",
        "ADDLINK",
        "DELETELINK",
        "DELETECHAIN"
      ],
      "vertexType": "MolecularFragment"
    },
    {
      "lstAPs": [
        {
          "id": 27332,
          "atomPositionNumber": 0,
          "atomPositionNumberInMol": 11,
          "apClass": {
            "rule": "SubRS",
            "subClass": 1,
            "bndTyp": "SINGLE"
          },
          "dirVec": {
            "x": 0.2865,
            "y": 0.3959,
            "z": -0.6387
          }
        }
      ],
      "lstSymAPs": [],
      "mol": {
        "atoms": [
          {
            "elSymbol": "C",
            "p3d": {
              "x": 0.3969,
              "y": -0.0496,
              "z": 0.8235
            }
          },
          {
            "elSymbol": "H",
            "p3d": {
              "x": -0.6146,
              "y": -0.163,
              "z": 1.2402
            }
          },
          {
            "elSymbol": "H",
            "p3d": {
              "x": 0.9335,
              "y": -0.9979,
              "z": 0.8998
            }
          },
          {
            "elSymbol": "H",
            "p3d": {
              "x": 0.9252,
              "y": 0.7237,
              "z": 1.3995
            }
          }
        ],
        "bonds": [
          {
            "atomIds": [
              0,
              1
            ],
            "bo": "SINGLE"
          },
          {
            "atomIds": [
              0,
              2
            ],
            "bo": "SINGLE"
          },
          {
            "atomIds": [
              0,
              3
            ],
            "bo": "SINGLE"
          }
        ]
      },
      "vertexId": 19715,
      "buildingBlockId": 30,
      "buildingBlockType": "FRAGMENT",
      "isRCV": false,
      "properties": {
        "ATTACHMENT_POINTS": "1#SubRS:1:SINGLE:0.2865%0.3959%-0.6387 "
      },
      "uniquefyingPropertyKeys": [],
      "allowedMutationTypes": [
        "DELETE",
        "EXTEND",
        "CHANGEBRANCH",
        "CHANGELINK",
        "ADDLINK",
        "DELETELINK",
        "DELETECHAIN"
      ],
      "vertexType": "MolecularFragment"
    },
    {
      "lstAPs": [
        {
          "id": 27336,
          "atomPositionNumber": 0,
          "atomPositionNumberInMol": 15,
          "apClass": {
            "rule": "LAminoPhosphineCycloN",
            "subClass": 1,
            "bndTyp": "SINGLE"
          },
          "dirVec": {
            "x": -1.0842,
            "y": 2.354,
            "z": 2.6746
          }
        }
      ],
      "lstSymAPs": [],
      "mol": {
        "atoms": [
          {
            "elSymbol": "N",
            "p3d": {
              "x": -2.0922,
              "y": 2.0012,
              "z": 1.4169
            }
          },
          {
            "elSymbol": "C",
            "p3d": {
              "x": -3.1902,
              "y": 2.8736,
              "z": 0.9976
            }
          },
          {
            "elSymbol": "H",
            "p3d": {
              "x": -2.8134,
              "y": 3.8695,
              "z": 0.7407
            }
          },
          {
            "elSymbol": "H",
            "p3d": {
              "x": -3.9276,
              "y": 2.975,
              "z": 1.7817
            }
          },
          {
            "elSymbol": "C",
            "p3d": {
              "x": -3.7598,
              "y": 2.1938,
              "z": -0.2148
            }
          },
          {
            "elSymbol": "H",
            "p3d": {
              "x": -4.5232,
              "y": 1.4545,
              "z": 0.0879
            }
          },
          {
            "elSymbol": "H",
            "p3d": {
              "x": -4.218,
              "y": 2.9166,
              "z": -0.8771
            }
          },
          {
            "elSymbol": "C",
            "p3d": {
              "x": -2.6022,
              "y": 1.5522,
              "z": -0.816
            }
          },
          {
            "elSymbol": "H",
            "p3d": {
              "x": -2.0593,
              "y": 2.2535,
              "z": -1.4546
            }
          },
          {
            "elSymbol": "H",
            "p3d": {
              "x": -2.9084,
              "y": 0.6969,
              "z": -1.4358
            }
          },
          {
            "elSymbol": "C",
            "p3d": {
              "x": -1.7245,
              "y": 1.0767,
              "z": 0.3024
            }
          },
          {
            "elSymbol": "H",
            "p3d": {
              "x": -1.937,
              "y": 0.0454,
              "z": 0.5649
            }
          },
          {
            "elSymbol": "H",
            "p3d": {
              "x": -0.6676,
              "y": 1.1814,
              "z": 0.0388
            }
          }
        ],
        "bonds": [
          {
            "atomIds": [
              1,
              0
            ],
            "bo": "SINGLE"
          },
          {
            "atomIds": [
              2,
              1
            ],
            "bo": "SINGLE"
          },
          {
            "atomIds": [
              3,
              1
            ],
            "bo": "SINGLE"
          },
          {
            "atomIds": [
              4,
              1
            ],
            "bo": "SINGLE"
          },
          {
            "atomIds": [
              5,
              4
            ],
            "bo": "SINGLE"
          },
          {
            "atomIds": [
              6,
              4
            ],
            "bo": "SINGLE"
          },
          {
            "atomIds": [
              7,
              4
            ],
            "bo": "SINGLE"
          },
          {
            "atomIds": [
              8,
              7
            ],
            "bo": "SINGLE"
          },
          {
            "atomIds": [
              9,
              7
            ],
            "bo": "SINGLE"
          },
          {
            "atomIds": [
              10,
              0
            ],
            "bo": "SINGLE"
          },
          {
            "atomIds": [
              11,
              10
            ],
            "bo": "SINGLE"
          },
          {
            "atomIds": [
              12,
              10
            ],
            "bo": "SINGLE"
          },
          {
            "atomIds": [
              7,
              10
            ],
            "bo": "SINGLE"
          }
        ]
      },
      "vertexId": 19706,
      "buildingBlockId": 6,
      "buildingBlockType": "FRAGMENT",
      "isRCV": false,
      "properties": {
        "ATTACHMENT_POINTS": "1#LAminoPhosphineCycloN:1:SINGLE:-1.0842%2.3540%2.6746 "
      },
      "uniquefyingPropertyKeys": [],
      "allowedMutationTypes": [
        "DELETE",
        "EXTEND",
        "CHANGEBRANCH",
        "CHANGELINK",
        "ADDLINK",
        "DELETELINK",
        "DELETECHAIN"
      ],
      "vertexType": "MolecularFragment"
    },
    {
      "lstAPs": [
        {
          "id": 27342,
          "atomPositionNumber": 0,
          "atomPositionNumberInMol": 28,
          "apClass": {
            "rule": "SubRS",
            "subClass": 1,
            "bndTyp": "SINGLE"
          },
          "dirVec": {
            "x": 0.2865,
            "y": 0.3959,
            "z": -0.6387
          }
        }
      ],
      "lstSymAPs": [],
      "mol": {
        "atoms": [
          {
            "elSymbol": "C",
            "p3d": {
              "x": 0.3969,
              "y": -0.0496,
              "z": 0.8235
            }
          },
          {
            "elSymbol": "H",
            "p3d": {
              "x": -0.6146,
              "y": -0.163,
              "z": 1.2402
            }
          },
          {
            "elSymbol": "H",
            "p3d": {
              "x": 0.9335,
              "y": -0.9979,
              "z": 0.8998
            }
          },
          {
            "elSymbol": "H",
            "p3d": {
              "x": 0.9252,
              "y": 0.7237,
              "z": 1.3995
            }
          }
        ],
        "bonds": [
          {
            "atomIds": [
              0,
              1
            ],
            "bo": "SINGLE"
          },
          {
            "atomIds": [
              0,
              2
            ],
            "bo": "SINGLE"
          },
          {
            "atomIds": [
              0,
              3
            ],
            "bo": "SINGLE"
          }
        ]
      },
      "vertexId": 19723,
      "buildingBlockId": 30,
      "buildingBlockType": "FRAGMENT",
      "isRCV": false,
      "properties": {
        "ATTACHMENT_POINTS": "1#SubRS:1:SINGLE:0.2865%0.3959%-0.6387 "
      },
      "uniquefyingPropertyKeys": [],
      "allowedMutationTypes": [
        "DELETE",
        "EXTEND",
        "CHANGEBRANCH",
        "CHANGELINK",
        "ADDLINK",
        "DELETELINK",
        "DELETECHAIN"
      ],
      "vertexType": "MolecularFragment"
    }
  ],
  "gEdges": [
    {
      "srcAPID": 27295,
      "trgAPID": 27298,
      "bondType": "SINGLE"
    },
    {
      "srcAPID": 27297,
      "trgAPID": 27302,
      "bondType": "SINGLE"
    },
    {
      "srcAPID": 27296,
      "trgAPID": 27303,
      "bondType": "SINGLE"
    },
    {
      "srcAPID": 27300,
      "trgAPID": 27332,
      "bondType": "SINGLE"
    },
    {
      "srcAPID": 27299,
      "trgAPID": 27336,
      "bondType": "SINGLE"
    },
    {
      "srcAPID": 27301,
      "trgAPID": 27342,
      "bondType": "SINGLE"
    }
  ],
  "gRings": [],
  "symVertices": [
    {
      "symIds": [
        19715,
        19723
      ]
    }
  ]
}

> <SMILES>
[Pt](C#O)(SC([H])([H])[H])([P](C([H])([H])[H])(N1C([H])([H])C([H])([H])C([H])([H])C1([H])[H])C([H])([H])[H])Cl

$$$$
