M00016111
  CDK     04222214243D

 35 37  0  0  0  0  0  0  0  0999 V2000
   -0.3038   -2.9309   -0.3532 Pt  0  0  0  0  0  0  0  0  0  0  0  0
   -0.3930   -4.8636    0.0067 C   0  0  0  0  0  0  0  0  0  0  0  0
   -0.4450   -5.9811    0.2143 O   0  0  0  0  0  0  0  0  0  0  0  0
   -2.4806   -3.2423   -1.1245 Cl  0  0  0  0  0  0  0  0  0  0  0  0
   -0.2054   -0.6913   -0.6768 P   0  0  0  0  0  0  0  0  0  0  0  0
    1.1245   -0.1107   -1.5904 O   0  0  0  0  0  0  0  0  0  0  0  0
   -1.4700    0.0164   -1.5961 O   0  0  0  0  0  0  0  0  0  0  0  0
    0.5753    0.7040   -2.5892 C   0  0  0  0  0  0  0  0  0  0  0  0
   -0.8426    0.7699   -2.5938 C   0  0  0  0  0  0  0  0  0  0  0  0
   -1.5320    1.5217   -3.5291 C   0  0  0  0  0  0  0  0  0  0  0  0
   -0.7562    2.2219   -4.4730 C   0  0  0  0  0  0  0  0  0  0  0  0
    0.6385    2.1581   -4.4671 C   0  0  0  0  0  0  0  0  0  0  0  0
    1.3388    1.3896   -3.5174 C   0  0  0  0  0  0  0  0  0  0  0  0
    2.4258    1.3293   -3.5125 H   0  0  0  0  0  0  0  0  0  0  0  0
    1.2077    2.7115   -5.2159 H   0  0  0  0  0  0  0  0  0  0  0  0
   -0.2152    0.1905    0.9797 C   0  0  0  0  0  0  0  0  0  0  0  0
   -0.8915   -0.1451    3.3752 C   0  0  0  0  0  0  0  0  0  0  0  0
    1.2167    1.1444    2.8054 C   0  0  0  0  0  0  0  0  0  0  0  0
    0.5298    0.2228    3.8224 C   0  0  0  0  0  0  0  0  0  0  0  0
    1.2237    0.5154    1.4018 C   0  0  0  0  0  0  0  0  0  0  0  0
   -0.8907   -0.7726    1.9701 C   0  0  0  0  0  0  0  0  0  0  0  0
   -1.5357    0.7550    3.3862 H   0  0  0  0  0  0  0  0  0  0  0  0
    0.7059    2.1257    2.7792 H   0  0  0  0  0  0  0  0  0  0  0  0
    1.1302   -0.6995    3.9547 H   0  0  0  0  0  0  0  0  0  0  0  0
    1.8581   -0.4005    1.4279 H   0  0  0  0  0  0  0  0  0  0  0  0
   -0.3529   -1.7519    2.0197 H   0  0  0  0  0  0  0  0  0  0  0  0
   -0.8078    1.1383    0.9083 H   0  0  0  0  0  0  0  0  0  0  0  0
   -1.3429   -0.8523    4.0972 H   0  0  0  0  0  0  0  0  0  0  0  0
    2.2567    1.3487    3.1247 H   0  0  0  0  0  0  0  0  0  0  0  0
    0.4987    0.7114    4.8142 H   0  0  0  0  0  0  0  0  0  0  0  0
    1.7112    1.2099    0.6882 H   0  0  0  0  0  0  0  0  0  0  0  0
   -1.9380   -1.0005    1.6763 H   0  0  0  0  0  0  0  0  0  0  0  0
   -2.6203    1.5598   -3.5335 H   0  0  0  0  0  0  0  0  0  0  0  0
   -1.2662    2.8244   -5.2266 H   0  0  0  0  0  0  0  0  0  0  0  0
    1.8486   -3.1263    0.5469 Cl  0  0  0  0  0  0  0  0  0  0  0  0
  2  3  3  0  0  0  0
  1  2  1  0  0  0  0
  1  4  1  0  0  0  0
  6  5  1  0  0  0  0
  7  5  1  0  0  0  0
  8  6  1  0  0  0  0
  8  9  2  0  0  0  0
  9  7  1  0  0  0  0
 10  9  1  0  0  0  0
 11 10  2  0  0  0  0
 12 11  1  0  0  0  0
 12 13  2  0  0  0  0
 13  8  1  0  0  0  0
  1  5  1  0  0  0  0
 13 14  1  0  0  0  0
 12 15  1  0  0  0  0
 16 27  1  0  0  0  0
 16 20  1  0  0  0  0
 16 21  1  0  0  0  0
 17 22  1  0  0  0  0
 17 28  1  0  0  0  0
 17 19  1  0  0  0  0
 17 21  1  0  0  0  0
 18 23  1  0  0  0  0
 18 29  1  0  0  0  0
 18 20  1  0  0  0  0
 18 19  1  0  0  0  0
 19 24  1  0  0  0  0
 19 30  1  0  0  0  0
 20 25  1  0  0  0  0
 20 31  1  0  0  0  0
 21 26  1  0  0  0  0
 21 32  1  0  0  0  0
  5 16  1  0  0  0  0
 10 33  1  0  0  0  0
 11 34  1  0  0  0  0
  1 35  1  0  0  0  0
M  END
> <PM6_ENERGY>
-576.721

> <UID>
YBXAYGJIPBRVQO-QDJXTGJLNA-L

> <FITNESS>
1.13781

> <GCODE>
17397

> <GraphENC>
17397 72_1_0,82_67_1,121_61_1,88_67_1,357400_1_2,357397_1_2,357382_35_1,357391_1_2,357394_1_2, 72_0_82_0_SINGLE_Xlig:0_Xlig:1,72_2_121_1_SINGLE_scaff:0_MPhosphonite:1,72_1_88_0_SINGLE_Xlig:0_Xlig:1,121_5_357400_0_SINGLE_sArCl:1_hyd:1,121_4_357397_0_SINGLE_sArCl:1_hyd:1,121_0_357382_0_SINGLE_LPhosphoniteSubR:0_SubRM:1,121_2_357391_0_SINGLE_sArCl:1_hyd:1,121_3_357394_0_SINGLE_sArCl:1_hyd:1, 

> <GraphJson>
{
  "graphId": 17397,
  "gVertices": [
    {
      "lstAPs": [
        {
          "id": 465537,
          "atomPositionNumber": 0,
          "atomPositionNumberInMol": 0,
          "apClass": {
            "rule": "Xlig",
            "subClass": 0,
            "bndTyp": "SINGLE"
          },
          "dirVec": {
            "x": -2.3339,
            "y": -0.0087,
            "z": 0.8172
          }
        },
        {
          "id": 465538,
          "atomPositionNumber": 0,
          "atomPositionNumberInMol": 0,
          "apClass": {
            "rule": "Xlig",
            "subClass": 0,
            "bndTyp": "SINGLE"
          },
          "dirVec": {
            "x": 2.336,
            "y": -5.0E-4,
            "z": 0.829
          }
        },
        {
          "id": 465539,
          "atomPositionNumber": 0,
          "atomPositionNumberInMol": 0,
          "apClass": {
            "rule": "scaff",
            "subClass": 0,
            "bndTyp": "SINGLE"
          },
          "dirVec": {
            "x": -0.0095,
            "y": 0.0046,
            "z": -1.7113
          }
        }
      ],
      "lstSymAPs": [
        {
          "symIds": [
            0,
            1
          ]
        }
      ],
      "mol": {
        "atoms": [
          {
            "elSymbol": "Pt",
            "p3d": {
              "x": -0.0098,
              "y": 0.0049,
              "z": 0.6289
            }
          },
          {
            "elSymbol": "C",
            "p3d": {
              "x": -6.0E-4,
              "y": 0.0016,
              "z": 2.5609
            }
          },
          {
            "elSymbol": "O",
            "p3d": {
              "x": 0.0025,
              "y": -0.0041,
              "z": 3.6974
            }
          },
          {
            "elSymbol": "Du",
            "p3d": {
              "x": -0.007,
              "y": 1.0013,
              "z": 0.6372
            }
          },
          {
            "elSymbol": "Du",
            "p3d": {
              "x": -0.0014,
              "y": 0.9902,
              "z": 2.5698
            }
          }
        ],
        "bonds": [
          {
            "atomIds": [
              1,
              2
            ],
            "bo": "TRIPLE"
          },
          {
            "atomIds": [
              0,
              1
            ],
            "bo": "SINGLE"
          },
          {
            "atomIds": [
              3,
              0
            ],
            "bo": "SINGLE"
          },
          {
            "atomIds": [
              4,
              1
            ],
            "bo": "SINGLE"
          }
        ]
      },
      "vertexId": 72,
      "buildingBlockId": 0,
      "buildingBlockType": "SCAFFOLD",
      "isRCV": false,
      "properties": {
        "ATTACHMENT_POINTS": "1#Xlig:0:SINGLE:-2.3339%-0.0087%0.8172,Xlig:0:SINGLE:2.3360%-0.0005%0.8290,scaff:0:SINGLE:-0.0095%0.0046%-1.7113 "
      },
      "uniquefyingPropertyKeys": [],
      "allowedMutationTypes": [
        "DELETE",
        "EXTEND",
        "CHANGEBRANCH",
        "CHANGELINK",
        "ADDLINK",
        "DELETELINK",
        "DELETECHAIN"
      ],
      "vertexType": "MolecularFragment"
    },
    {
      "lstAPs": [
        {
          "id": 465540,
          "atomPositionNumber": 0,
          "atomPositionNumberInMol": 5,
          "apClass": {
            "rule": "Xlig",
            "subClass": 1,
            "bndTyp": "SINGLE"
          },
          "dirVec": {
            "x": -0.0053,
            "y": -0.0027,
            "z": 0.63
          }
        }
      ],
      "lstSymAPs": [],
      "mol": {
        "atoms": [
          {
            "elSymbol": "Cl",
            "p3d": {
              "x": 2.3243,
              "y": -0.0063,
              "z": 0.8189
            }
          }
        ],
        "bonds": []
      },
      "vertexId": 82,
      "buildingBlockId": 66,
      "buildingBlockType": "FRAGMENT",
      "isRCV": false,
      "properties": {
        "ATTACHMENT_POINTS": "1#Xlig:1:SINGLE:-0.0053%-0.0027%0.6300 "
      },
      "uniquefyingPropertyKeys": [],
      "allowedMutationTypes": [
        "DELETE",
        "EXTEND",
        "CHANGEBRANCH",
        "CHANGELINK",
        "ADDLINK",
        "DELETELINK",
        "DELETECHAIN"
      ],
      "vertexType": "MolecularFragment"
    },
    {
      "lstAPs": [
        {
          "id": 465541,
          "atomPositionNumber": 0,
          "atomPositionNumberInMol": 6,
          "apClass": {
            "rule": "LPhosphoniteSubR",
            "subClass": 0,
            "bndTyp": "SINGLE"
          },
          "dirVec": {
            "x": 4.4068,
            "y": 7.1514,
            "z": 3.225
          }
        },
        {
          "id": 465542,
          "atomPositionNumber": 0,
          "atomPositionNumberInMol": 6,
          "apClass": {
            "rule": "MPhosphonite",
            "subClass": 1,
            "bndTyp": "SINGLE"
          },
          "dirVec": {
            "x": 2.0992,
            "y": 9.8558,
            "z": 2.0523
          }
        },
        {
          "id": 465543,
          "atomPositionNumber": 5,
          "atomPositionNumberInMol": 11,
          "apClass": {
            "rule": "sArCl",
            "subClass": 1,
            "bndTyp": "SINGLE"
          },
          "dirVec": {
            "x": 0.6858,
            "y": 4.225,
            "z": 0.5361
          }
        },
        {
          "id": 465544,
          "atomPositionNumber": 6,
          "atomPositionNumberInMol": 12,
          "apClass": {
            "rule": "sArCl",
            "subClass": 1,
            "bndTyp": "SINGLE"
          },
          "dirVec": {
            "x": -1.3527,
            "y": 2.6941,
            "z": 2.4126
          }
        },
        {
          "id": 465545,
          "atomPositionNumber": 7,
          "atomPositionNumberInMol": 13,
          "apClass": {
            "rule": "sArCl",
            "subClass": 1,
            "bndTyp": "SINGLE"
          },
          "dirVec": {
            "x": -1.5783,
            "y": 3.4734,
            "z": 5.4078
          }
        },
        {
          "id": 465546,
          "atomPositionNumber": 8,
          "atomPositionNumberInMol": 14,
          "apClass": {
            "rule": "sArCl",
            "subClass": 1,
            "bndTyp": "SINGLE"
          },
          "dirVec": {
            "x": 0.1066,
            "y": 5.8434,
            "z": 6.538
          }
        }
      ],
      "lstSymAPs": [
        {
          "symIds": [
            2,
            3,
            4,
            5
          ]
        }
      ],
      "mol": {
        "atoms": [
          {
            "elSymbol": "P",
            "p3d": {
              "x": 2.6785,
              "y": 7.6971,
              "z": 2.9618
            }
          },
          {
            "elSymbol": "O",
            "p3d": {
              "x": 1.8393,
              "y": 7.1782,
              "z": 4.337
            }
          },
          {
            "elSymbol": "O",
            "p3d": {
              "x": 2.0482,
              "y": 6.4774,
              "z": 1.9984
            }
          },
          {
            "elSymbol": "C",
            "p3d": {
              "x": 1.0897,
              "y": 6.0606,
              "z": 4.0384
            }
          },
          {
            "elSymbol": "C",
            "p3d": {
              "x": 1.2045,
              "y": 5.6797,
              "z": 2.7196
            }
          },
          {
            "elSymbol": "C",
            "p3d": {
              "x": 0.4857,
              "y": 4.6461,
              "z": 2.2048
            }
          },
          {
            "elSymbol": "C",
            "p3d": {
              "x": -0.3938,
              "y": 3.9649,
              "z": 3.0541
            }
          },
          {
            "elSymbol": "C",
            "p3d": {
              "x": -0.4923,
              "y": 4.3317,
              "z": 4.3806
            }
          },
          {
            "elSymbol": "C",
            "p3d": {
              "x": 0.2319,
              "y": 5.401,
              "z": 4.8933
            }
          }
        ],
        "bonds": [
          {
            "atomIds": [
              1,
              0
            ],
            "bo": "SINGLE"
          },
          {
            "atomIds": [
              2,
              0
            ],
            "bo": "SINGLE"
          },
          {
            "atomIds": [
              3,
              1
            ],
            "bo": "SINGLE"
          },
          {
            "atomIds": [
              3,
              4
            ],
            "bo": "DOUBLE"
          },
          {
            "atomIds": [
              4,
              2
            ],
            "bo": "SINGLE"
          },
          {
            "atomIds": [
              5,
              4
            ],
            "bo": "SINGLE"
          },
          {
            "atomIds": [
              6,
              5
            ],
            "bo": "DOUBLE"
          },
          {
            "atomIds": [
              7,
              6
            ],
            "bo": "SINGLE"
          },
          {
            "atomIds": [
              7,
              8
            ],
            "bo": "DOUBLE"
          },
          {
            "atomIds": [
              8,
              3
            ],
            "bo": "SINGLE"
          }
        ]
      },
      "vertexId": 121,
      "buildingBlockId": 60,
      "buildingBlockType": "FRAGMENT",
      "isRCV": false,
      "properties": {
        "ATTACHMENT_POINTS": "1#LPhosphoniteSubR:0:SINGLE:4.4068%7.1514%3.2250,MPhosphonite:1:SINGLE:2.0992%9.8558%2.0523 6#sArCl:1:SINGLE:0.6858%4.2250%0.5361 7#sArCl:1:SINGLE:-1.3527%2.6941%2.4126 8#sArCl:1:SINGLE:-1.5783%3.4734%5.4078 9#sArCl:1:SINGLE:0.1066%5.8434%6.5380 "
      },
      "uniquefyingPropertyKeys": [],
      "allowedMutationTypes": [
        "DELETE",
        "EXTEND",
        "CHANGEBRANCH",
        "CHANGELINK",
        "ADDLINK",
        "DELETELINK",
        "DELETECHAIN"
      ],
      "vertexType": "MolecularFragment"
    },
    {
      "lstAPs": [
        {
          "id": 465547,
          "atomPositionNumber": 0,
          "atomPositionNumberInMol": 36,
          "apClass": {
            "rule": "Xlig",
            "subClass": 1,
            "bndTyp": "SINGLE"
          },
          "dirVec": {
            "x": -0.0053,
            "y": -0.0027,
            "z": 0.63
          }
        }
      ],
      "lstSymAPs": [],
      "mol": {
        "atoms": [
          {
            "elSymbol": "Cl",
            "p3d": {
              "x": 2.3243,
              "y": -0.0063,
              "z": 0.8189
            }
          }
        ],
        "bonds": []
      },
      "vertexId": 88,
      "buildingBlockId": 66,
      "buildingBlockType": "FRAGMENT",
      "isRCV": false,
      "properties": {
        "ATTACHMENT_POINTS": "1#Xlig:1:SINGLE:-0.0053%-0.0027%0.6300 "
      },
      "uniquefyingPropertyKeys": [],
      "allowedMutationTypes": [
        "DELETE",
        "EXTEND",
        "CHANGEBRANCH",
        "CHANGELINK",
        "ADDLINK",
        "DELETELINK",
        "DELETECHAIN"
      ],
      "vertexType": "MolecularFragment"
    },
    {
      "lstAPs": [
        {
          "id": 465596,
          "atomPositionNumber": 0,
          "atomPositionNumberInMol": 15,
          "apClass": {
            "rule": "hyd",
            "subClass": 1,
            "bndTyp": "SINGLE"
          },
          "dirVec": {
            "x": 0.4589,
            "y": -1.751,
            "z": 0.3869
          }
        }
      ],
      "lstSymAPs": [],
      "mol": {
        "atoms": [
          {
            "elSymbol": "H",
            "p3d": {
              "x": 0.1925,
              "y": -2.5024,
              "z": 1.1483
            }
          }
        ],
        "bonds": []
      },
      "vertexId": 357400,
      "buildingBlockId": 0,
      "buildingBlockType": "CAP",
      "isRCV": false,
      "properties": {
        "ATTACHMENT_POINTS": "1#hyd:1:SINGLE:0.4589%-1.7510%0.3869 "
      },
      "uniquefyingPropertyKeys": [],
      "allowedMutationTypes": [
        "DELETE",
        "EXTEND",
        "CHANGEBRANCH",
        "CHANGELINK",
        "ADDLINK",
        "DELETELINK",
        "DELETECHAIN"
      ],
      "vertexType": "MolecularFragment"
    },
    {
      "lstAPs": [
        {
          "id": 465597,
          "atomPositionNumber": 0,
          "atomPositionNumberInMol": 16,
          "apClass": {
            "rule": "hyd",
            "subClass": 1,
            "bndTyp": "SINGLE"
          },
          "dirVec": {
            "x": 0.4589,
            "y": -1.751,
            "z": 0.3869
          }
        }
      ],
      "lstSymAPs": [],
      "mol": {
        "atoms": [
          {
            "elSymbol": "H",
            "p3d": {
              "x": 0.1925,
              "y": -2.5024,
              "z": 1.1483
            }
          }
        ],
        "bonds": []
      },
      "vertexId": 357397,
      "buildingBlockId": 0,
      "buildingBlockType": "CAP",
      "isRCV": false,
      "properties": {
        "ATTACHMENT_POINTS": "1#hyd:1:SINGLE:0.4589%-1.7510%0.3869 "
      },
      "uniquefyingPropertyKeys": [],
      "allowedMutationTypes": [
        "DELETE",
        "EXTEND",
        "CHANGEBRANCH",
        "CHANGELINK",
        "ADDLINK",
        "DELETELINK",
        "DELETECHAIN"
      ],
      "vertexType": "MolecularFragment"
    },
    {
      "lstAPs": [
        {
          "id": 465598,
          "atomPositionNumber": 0,
          "atomPositionNumberInMol": 17,
          "apClass": {
            "rule": "SubRM",
            "subClass": 1,
            "bndTyp": "SINGLE"
          },
          "dirVec": {
            "x": 0.2917,
            "y": 0.3929,
            "z": -0.6365
          }
        }
      ],
      "lstSymAPs": [],
      "mol": {
        "atoms": [
          {
            "elSymbol": "C",
            "p3d": {
              "x": 1.7002,
              "y": 0.56,
              "z": -1.2045
            }
          },
          {
            "elSymbol": "C",
            "p3d": {
              "x": 3.564,
              "y": -0.7339,
              "z": -2.2652
            }
          },
          {
            "elSymbol": "C",
            "p3d": {
              "x": 2.9237,
              "y": 1.5034,
              "z": -3.1926
            }
          },
          {
            "elSymbol": "C",
            "p3d": {
              "x": 3.4145,
              "y": 0.0994,
              "z": -3.5498
            }
          },
          {
            "elSymbol": "C",
            "p3d": {
              "x": 1.5576,
              "y": 1.3879,
              "z": -2.5024
            }
          },
          {
            "elSymbol": "C",
            "p3d": {
              "x": 2.203,
              "y": -0.843,
              "z": -1.5702
            }
          },
          {
            "elSymbol": "H",
            "p3d": {
              "x": 4.3384,
              "y": -0.3241,
              "z": -1.6106
            }
          },
          {
            "elSymbol": "H",
            "p3d": {
              "x": 3.6361,
              "y": 2.0524,
              "z": -2.5991
            }
          },
          {
            "elSymbol": "H",
            "p3d": {
              "x": 2.7828,
              "y": -0.3911,
              "z": -4.2916
            }
          },
          {
            "elSymbol": "H",
            "p3d": {
              "x": 0.7737,
              "y": 0.9833,
              "z": -3.15
            }
          },
          {
            "elSymbol": "H",
            "p3d": {
              "x": 1.4815,
              "y": -1.3988,
              "z": -2.1783
            }
          },
          {
            "elSymbol": "H",
            "p3d": {
              "x": 2.3445,
              "y": 1.0609,
              "z": -0.4835
            }
          },
          {
            "elSymbol": "H",
            "p3d": {
              "x": 3.8429,
              "y": -1.7623,
              "z": -2.577
            }
          },
          {
            "elSymbol": "H",
            "p3d": {
              "x": 2.7428,
              "y": 2.0124,
              "z": -4.146
            }
          },
          {
            "elSymbol": "H",
            "p3d": {
              "x": 4.4291,
              "y": 0.2183,
              "z": -3.9628
            }
          },
          {
            "elSymbol": "H",
            "p3d": {
              "x": 1.2819,
              "y": 2.4034,
              "z": -2.1821
            }
          },
          {
            "elSymbol": "H",
            "p3d": {
              "x": 2.3734,
              "y": -1.3662,
              "z": -0.6149
            }
          }
        ],
        "bonds": [
          {
            "atomIds": [
              0,
              11
            ],
            "bo": "SINGLE"
          },
          {
            "atomIds": [
              0,
              4
            ],
            "bo": "SINGLE"
          },
          {
            "atomIds": [
              0,
              5
            ],
            "bo": "SINGLE"
          },
          {
            "atomIds": [
              1,
              6
            ],
            "bo": "SINGLE"
          },
          {
            "atomIds": [
              1,
              12
            ],
            "bo": "SINGLE"
          },
          {
            "atomIds": [
              1,
              3
            ],
            "bo": "SINGLE"
          },
          {
            "atomIds": [
              1,
              5
            ],
            "bo": "SINGLE"
          },
          {
            "atomIds": [
              2,
              7
            ],
            "bo": "SINGLE"
          },
          {
            "atomIds": [
              2,
              13
            ],
            "bo": "SINGLE"
          },
          {
            "atomIds": [
              2,
              4
            ],
            "bo": "SINGLE"
          },
          {
            "atomIds": [
              2,
              3
            ],
            "bo": "SINGLE"
          },
          {
            "atomIds": [
              3,
              8
            ],
            "bo": "SINGLE"
          },
          {
            "atomIds": [
              3,
              14
            ],
            "bo": "SINGLE"
          },
          {
            "atomIds": [
              4,
              9
            ],
            "bo": "SINGLE"
          },
          {
            "atomIds": [
              4,
              15
            ],
            "bo": "SINGLE"
          },
          {
            "atomIds": [
              5,
              10
            ],
            "bo": "SINGLE"
          },
          {
            "atomIds": [
              5,
              16
            ],
            "bo": "SINGLE"
          }
        ]
      },
      "vertexId": 357382,
      "buildingBlockId": 34,
      "buildingBlockType": "FRAGMENT",
      "isRCV": false,
      "properties": {
        "ATTACHMENT_POINTS": "1#SubRM:1:SINGLE:0.2917%0.3929%-0.6365 "
      },
      "uniquefyingPropertyKeys": [],
      "allowedMutationTypes": [
        "DELETE",
        "EXTEND",
        "CHANGEBRANCH",
        "CHANGELINK",
        "ADDLINK",
        "DELETELINK",
        "DELETECHAIN"
      ],
      "vertexType": "MolecularFragment"
    },
    {
      "lstAPs": [
        {
          "id": 465599,
          "atomPositionNumber": 0,
          "atomPositionNumberInMol": 34,
          "apClass": {
            "rule": "hyd",
            "subClass": 1,
            "bndTyp": "SINGLE"
          },
          "dirVec": {
            "x": 0.4589,
            "y": -1.751,
            "z": 0.3869
          }
        }
      ],
      "lstSymAPs": [],
      "mol": {
        "atoms": [
          {
            "elSymbol": "H",
            "p3d": {
              "x": 0.1925,
              "y": -2.5024,
              "z": 1.1483
            }
          }
        ],
        "bonds": []
      },
      "vertexId": 357391,
      "buildingBlockId": 0,
      "buildingBlockType": "CAP",
      "isRCV": false,
      "properties": {
        "ATTACHMENT_POINTS": "1#hyd:1:SINGLE:0.4589%-1.7510%0.3869 "
      },
      "uniquefyingPropertyKeys": [],
      "allowedMutationTypes": [
        "DELETE",
        "EXTEND",
        "CHANGEBRANCH",
        "CHANGELINK",
        "ADDLINK",
        "DELETELINK",
        "DELETECHAIN"
      ],
      "vertexType": "MolecularFragment"
    },
    {
      "lstAPs": [
        {
          "id": 465600,
          "atomPositionNumber": 0,
          "atomPositionNumberInMol": 35,
          "apClass": {
            "rule": "hyd",
            "subClass": 1,
            "bndTyp": "SINGLE"
          },
          "dirVec": {
            "x": 0.4589,
            "y": -1.751,
            "z": 0.3869
          }
        }
      ],
      "lstSymAPs": [],
      "mol": {
        "atoms": [
          {
            "elSymbol": "H",
            "p3d": {
              "x": 0.1925,
              "y": -2.5024,
              "z": 1.1483
            }
          }
        ],
        "bonds": []
      },
      "vertexId": 357394,
      "buildingBlockId": 0,
      "buildingBlockType": "CAP",
      "isRCV": false,
      "properties": {
        "ATTACHMENT_POINTS": "1#hyd:1:SINGLE:0.4589%-1.7510%0.3869 "
      },
      "uniquefyingPropertyKeys": [],
      "allowedMutationTypes": [
        "DELETE",
        "EXTEND",
        "CHANGEBRANCH",
        "CHANGELINK",
        "ADDLINK",
        "DELETELINK",
        "DELETECHAIN"
      ],
      "vertexType": "MolecularFragment"
    }
  ],
  "gEdges": [
    {
      "srcAPID": 465537,
      "trgAPID": 465540,
      "bondType": "SINGLE"
    },
    {
      "srcAPID": 465539,
      "trgAPID": 465542,
      "bondType": "SINGLE"
    },
    {
      "srcAPID": 465538,
      "trgAPID": 465547,
      "bondType": "SINGLE"
    },
    {
      "srcAPID": 465546,
      "trgAPID": 465596,
      "bondType": "SINGLE"
    },
    {
      "srcAPID": 465545,
      "trgAPID": 465597,
      "bondType": "SINGLE"
    },
    {
      "srcAPID": 465541,
      "trgAPID": 465598,
      "bondType": "SINGLE"
    },
    {
      "srcAPID": 465543,
      "trgAPID": 465599,
      "bondType": "SINGLE"
    },
    {
      "srcAPID": 465544,
      "trgAPID": 465600,
      "bondType": "SINGLE"
    }
  ],
  "gRings": [],
  "symVertices": []
}

> <SMILES>
[Pt](C#O)(Cl)([P]1(OC2=C(O1)C(=C(C(=C2[H])[H])[H])[H])C3([H])C(C([H])([H])C(C([H])([H])C3([H])[H])([H])[H])([H])[H])Cl

$$$$
