M00006950
  CDK     04222211133D

 71 74  0  0  0  0  0  0  0  0999 V2000
   -2.6389    1.1246   -0.0650 Pt  0  0  0  0  0  0  0  0  0  0  0  0
   -4.5742    1.2679    0.0880 C   0  0  0  0  0  0  0  0  0  0  0  0
   -5.7125    1.2977    0.1729 O   0  0  0  0  0  0  0  0  0  0  0  0
   -2.2958    3.0655    0.2950 C   0  0  0  0  0  0  0  0  0  0  0  0
   -2.1263    4.1870    0.5201 N   0  0  0  0  0  0  0  0  0  0  0  0
    0.2827    0.2491    1.4226 C   0  0  0  0  0  0  0  0  0  0  0  0
    0.8722   -0.9462    1.2041 C   0  0  0  0  0  0  0  0  0  0  0  0
    1.4331   -1.7924    2.3059 C   0  0  0  0  0  0  0  0  0  0  0  0
    0.5808   -2.2705    2.8412 H   0  0  0  0  0  0  0  0  0  0  0  0
    1.9319   -1.1504    3.0642 H   0  0  0  0  0  0  0  0  0  0  0  0
    2.4072   -2.8735    1.8274 C   0  0  0  0  0  0  0  0  0  0  0  0
    3.3722   -2.4141    1.5370 H   0  0  0  0  0  0  0  0  0  0  0  0
    2.6381   -3.5650    2.6601 H   0  0  0  0  0  0  0  0  0  0  0  0
    1.8141   -3.6427    0.6443 C   0  0  0  0  0  0  0  0  0  0  0  0
    0.8493   -4.1039    0.9346 H   0  0  0  0  0  0  0  0  0  0  0  0
    2.4769   -4.4813    0.3579 H   0  0  0  0  0  0  0  0  0  0  0  0
    1.6102   -2.7089   -0.5511 C   0  0  0  0  0  0  0  0  0  0  0  0
    2.5956   -2.4492   -0.9981 H   0  0  0  0  0  0  0  0  0  0  0  0
    1.0528   -3.2461   -1.3608 H   0  0  0  0  0  0  0  0  0  0  0  0
    0.8951   -1.4375   -0.2133 C   0  0  0  0  0  0  0  0  0  0  0  0
    0.2777   -0.6616   -1.1290 C   0  0  0  0  0  0  0  0  0  0  0  0
   -0.3751    0.8283   -0.2184 P   0  0  0  0  0  0  0  0  0  0  0  0
    0.0385    0.9566    2.7125 C   0  0  0  0  0  0  0  0  0  0  0  0
    0.4201    2.9976    4.1404 C   0  0  0  0  0  0  0  0  0  0  0  0
   -1.6746    1.5911    4.4516 C   0  0  0  0  0  0  0  0  0  0  0  0
   -1.0628    2.9972    4.5404 C   0  0  0  0  0  0  0  0  0  0  0  0
   -1.4707    0.9900    3.0538 C   0  0  0  0  0  0  0  0  0  0  0  0
    0.6169    2.3878    2.7437 C   0  0  0  0  0  0  0  0  0  0  0  0
    1.0137    2.4389    4.8878 H   0  0  0  0  0  0  0  0  0  0  0  0
   -1.2246    0.9339    5.2192 H   0  0  0  0  0  0  0  0  0  0  0  0
   -1.6235    3.6881    3.8775 H   0  0  0  0  0  0  0  0  0  0  0  0
   -2.0362    1.5990    2.3122 H   0  0  0  0  0  0  0  0  0  0  0  0
    0.1148    3.0381    1.9995 H   0  0  0  0  0  0  0  0  0  0  0  0
    0.5533    0.3764    3.5274 H   0  0  0  0  0  0  0  0  0  0  0  0
    0.8087    4.0338    4.1518 H   0  0  0  0  0  0  0  0  0  0  0  0
   -2.7552    1.6381    4.6852 H   0  0  0  0  0  0  0  0  0  0  0  0
   -1.1781    3.3958    5.5648 H   0  0  0  0  0  0  0  0  0  0  0  0
   -1.9013   -0.0330    2.9963 H   0  0  0  0  0  0  0  0  0  0  0  0
    1.6884    2.3738    2.4782 H   0  0  0  0  0  0  0  0  0  0  0  0
   -0.0847    2.7797   -2.1645 C   0  0  0  0  0  0  0  0  0  0  0  0
    0.5621    2.3604   -0.8508 C   0  0  0  0  0  0  0  0  0  0  0  0
    2.0448    2.0562   -1.0019 C   0  0  0  0  0  0  0  0  0  0  0  0
    2.5877    2.9657   -1.3018 H   0  0  0  0  0  0  0  0  0  0  0  0
    2.2510    1.3052   -1.7880 H   0  0  0  0  0  0  0  0  0  0  0  0
    2.5150    1.7095   -0.0725 H   0  0  0  0  0  0  0  0  0  0  0  0
    0.0517    2.0518   -2.9765 H   0  0  0  0  0  0  0  0  0  0  0  0
   -1.1636    2.9897   -2.0725 H   0  0  0  0  0  0  0  0  0  0  0  0
    0.3634    3.7208   -2.5219 H   0  0  0  0  0  0  0  0  0  0  0  0
    0.4254    3.1805   -0.0913 H   0  0  0  0  0  0  0  0  0  0  0  0
    0.1173   -0.8049   -2.6067 C   0  0  0  0  0  0  0  0  0  0  0  0
    1.3475   -0.8176   -4.8210 C   0  0  0  0  0  0  0  0  0  0  0  0
   -0.6920   -2.2896   -4.4935 C   0  0  0  0  0  0  0  0  0  0  0  0
    0.6654   -2.1416   -5.1950 C   0  0  0  0  0  0  0  0  0  0  0  0
   -0.5658   -2.1407   -2.9733 C   0  0  0  0  0  0  0  0  0  0  0  0
    1.4952   -0.6837   -3.3009 C   0  0  0  0  0  0  0  0  0  0  0  0
    0.7605    0.0315   -5.2213 H   0  0  0  0  0  0  0  0  0  0  0  0
   -1.4013   -1.5344   -4.8855 H   0  0  0  0  0  0  0  0  0  0  0  0
    1.3213   -2.9903   -4.9228 H   0  0  0  0  0  0  0  0  0  0  0  0
    0.0077   -2.9931   -2.5511 H   0  0  0  0  0  0  0  0  0  0  0  0
    2.1815   -1.4639   -2.9237 H   0  0  0  0  0  0  0  0  0  0  0  0
   -0.5378    0.0124   -3.0132 H   0  0  0  0  0  0  0  0  0  0  0  0
    2.3409   -0.7556   -5.3030 H   0  0  0  0  0  0  0  0  0  0  0  0
   -1.1367   -3.2735   -4.7356 H   0  0  0  0  0  0  0  0  0  0  0  0
    0.5302   -2.1986   -6.2912 H   0  0  0  0  0  0  0  0  0  0  0  0
   -1.5686   -2.1840   -2.4988 H   0  0  0  0  0  0  0  0  0  0  0  0
    1.9634    0.2895   -3.0373 H   0  0  0  0  0  0  0  0  0  0  0  0
   -3.3194   -1.0752   -0.4562 S   0  0  0  0  0  0  0  0  0  0  0  0
   -2.7706   -1.8233    1.1045 C   0  0  0  0  0  0  0  0  0  0  0  0
   -3.5401   -2.5211    1.4540 H   0  0  0  0  0  0  0  0  0  0  0  0
   -2.6063   -1.0638    1.8842 H   0  0  0  0  0  0  0  0  0  0  0  0
   -1.8396   -2.3780    0.9472 H   0  0  0  0  0  0  0  0  0  0  0  0
  2  3  3  0  0  0  0
  1  2  1  0  0  0  0
  4  5  3  0  0  0  0
  1  4  1  0  0  0  0
  6  7  2  0  0  0  0
  7  8  1  0  0  0  0
  8  9  1  0  0  0  0
 10  8  1  0  0  0  0
 11  8  1  0  0  0  0
 12 11  1  0  0  0  0
 13 11  1  0  0  0  0
 14 11  1  0  0  0  0
 15 14  1  0  0  0  0
 16 14  1  0  0  0  0
 17 14  1  0  0  0  0
 17 20  1  0  0  0  0
 18 17  1  0  0  0  0
 19 17  1  0  0  0  0
 20  7  1  0  0  0  0
 21 20  2  0  0  0  0
 21 22  1  0  0  0  0
 22  6  1  0  0  0  0
  1 22  1  0  0  0  0
 23 34  1  0  0  0  0
 23 27  1  0  0  0  0
 23 28  1  0  0  0  0
 24 29  1  0  0  0  0
 24 35  1  0  0  0  0
 24 26  1  0  0  0  0
 24 28  1  0  0  0  0
 25 30  1  0  0  0  0
 25 36  1  0  0  0  0
 25 27  1  0  0  0  0
 25 26  1  0  0  0  0
 26 31  1  0  0  0  0
 26 37  1  0  0  0  0
 27 32  1  0  0  0  0
 27 38  1  0  0  0  0
 28 33  1  0  0  0  0
 28 39  1  0  0  0  0
  6 23  1  0  0  0  0
 40 41  1  0  0  0  0
 41 42  1  0  0  0  0
 42 43  1  0  0  0  0
 42 44  1  0  0  0  0
 42 45  1  0  0  0  0
 40 46  1  0  0  0  0
 40 47  1  0  0  0  0
 40 48  1  0  0  0  0
 41 49  1  0  0  0  0
 22 41  1  0  0  0  0
 50 61  1  0  0  0  0
 50 54  1  0  0  0  0
 50 55  1  0  0  0  0
 51 56  1  0  0  0  0
 51 62  1  0  0  0  0
 51 53  1  0  0  0  0
 51 55  1  0  0  0  0
 52 57  1  0  0  0  0
 52 63  1  0  0  0  0
 52 54  1  0  0  0  0
 52 53  1  0  0  0  0
 53 58  1  0  0  0  0
 53 64  1  0  0  0  0
 54 59  1  0  0  0  0
 54 65  1  0  0  0  0
 55 60  1  0  0  0  0
 55 66  1  0  0  0  0
 21 50  1  0  0  0  0
 68 69  1  0  0  0  0
 68 70  1  0  0  0  0
 68 71  1  0  0  0  0
 67 68  1  0  0  0  0
  1 67  1  0  0  0  0
M  END
> <PM6_ENERGY>
-225.032

> <UID>
VRVOFFGFTITVPT-RRLFQRDVNA-M

> <FITNESS>
1.14185

> <GCODE>
7823

> <GraphENC>
7823 72_1_0,81_66_1,113_53_1,85_64_1,156671_35_1,156678_33_1,157035_35_1, 72_0_81_0_SINGLE_Xlig:0_Xlig:1,72_2_113_3_SINGLE_scaff:0_MPhosphole:1,72_1_85_0_SINGLE_Xlig:0_Xlig:1,113_0_156671_0_SINGLE_LPhospholeSubAlpha:0_SubRM:1,113_2_156678_0_SINGLE_LPhospholeSubR:0_SubRM:1,113_1_157035_0_SINGLE_LPhospholeSubAlpha:0_SubRM:1, SymmetricSet [symIds=[156671, 157035]] 

> <GraphJson>
{
  "graphId": 7823,
  "gVertices": [
    {
      "lstAPs": [
        {
          "id": 205457,
          "atomPositionNumber": 0,
          "atomPositionNumberInMol": 0,
          "apClass": {
            "rule": "Xlig",
            "subClass": 0,
            "bndTyp": "SINGLE"
          },
          "dirVec": {
            "x": -2.3339,
            "y": -0.0087,
            "z": 0.8172
          }
        },
        {
          "id": 205458,
          "atomPositionNumber": 0,
          "atomPositionNumberInMol": 0,
          "apClass": {
            "rule": "Xlig",
            "subClass": 0,
            "bndTyp": "SINGLE"
          },
          "dirVec": {
            "x": 2.336,
            "y": -5.0E-4,
            "z": 0.829
          }
        },
        {
          "id": 205459,
          "atomPositionNumber": 0,
          "atomPositionNumberInMol": 0,
          "apClass": {
            "rule": "scaff",
            "subClass": 0,
            "bndTyp": "SINGLE"
          },
          "dirVec": {
            "x": -0.0095,
            "y": 0.0046,
            "z": -1.7113
          }
        }
      ],
      "lstSymAPs": [
        {
          "symIds": [
            0,
            1
          ]
        }
      ],
      "mol": {
        "atoms": [
          {
            "elSymbol": "Pt",
            "p3d": {
              "x": -0.0098,
              "y": 0.0049,
              "z": 0.6289
            }
          },
          {
            "elSymbol": "C",
            "p3d": {
              "x": -6.0E-4,
              "y": 0.0016,
              "z": 2.5609
            }
          },
          {
            "elSymbol": "O",
            "p3d": {
              "x": 0.0025,
              "y": -0.0041,
              "z": 3.6974
            }
          },
          {
            "elSymbol": "Du",
            "p3d": {
              "x": -0.007,
              "y": 1.0013,
              "z": 0.6372
            }
          },
          {
            "elSymbol": "Du",
            "p3d": {
              "x": -0.0014,
              "y": 0.9902,
              "z": 2.5698
            }
          }
        ],
        "bonds": [
          {
            "atomIds": [
              1,
              2
            ],
            "bo": "TRIPLE"
          },
          {
            "atomIds": [
              0,
              1
            ],
            "bo": "SINGLE"
          },
          {
            "atomIds": [
              3,
              0
            ],
            "bo": "SINGLE"
          },
          {
            "atomIds": [
              4,
              1
            ],
            "bo": "SINGLE"
          }
        ]
      },
      "vertexId": 72,
      "buildingBlockId": 0,
      "buildingBlockType": "SCAFFOLD",
      "isRCV": false,
      "properties": {
        "ATTACHMENT_POINTS": "1#Xlig:0:SINGLE:-2.3339%-0.0087%0.8172,Xlig:0:SINGLE:2.3360%-0.0005%0.8290,scaff:0:SINGLE:-0.0095%0.0046%-1.7113 "
      },
      "uniquefyingPropertyKeys": [],
      "allowedMutationTypes": [
        "DELETE",
        "EXTEND",
        "CHANGEBRANCH",
        "CHANGELINK",
        "ADDLINK",
        "DELETELINK",
        "DELETECHAIN"
      ],
      "vertexType": "MolecularFragment"
    },
    {
      "lstAPs": [
        {
          "id": 205460,
          "atomPositionNumber": 0,
          "atomPositionNumberInMol": 5,
          "apClass": {
            "rule": "Xlig",
            "subClass": 1,
            "bndTyp": "SINGLE"
          },
          "dirVec": {
            "x": 0.0192,
            "y": -0.0048,
            "z": -0.5645
          }
        }
      ],
      "lstSymAPs": [],
      "mol": {
        "atoms": [
          {
            "elSymbol": "C",
            "p3d": {
              "x": -1.967,
              "y": -0.0075,
              "z": -0.4937
            }
          },
          {
            "elSymbol": "N",
            "p3d": {
              "x": -3.1263,
              "y": -0.0054,
              "z": -0.4354
            }
          },
          {
            "elSymbol": "Du",
            "p3d": {
              "x": -1.9744,
              "y": 0.9926,
              "z": -0.5036
            }
          }
        ],
        "bonds": [
          {
            "atomIds": [
              0,
              1
            ],
            "bo": "TRIPLE"
          },
          {
            "atomIds": [
              2,
              0
            ],
            "bo": "SINGLE"
          }
        ]
      },
      "vertexId": 81,
      "buildingBlockId": 65,
      "buildingBlockType": "FRAGMENT",
      "isRCV": false,
      "properties": {
        "ATTACHMENT_POINTS": "1#Xlig:1:SINGLE:0.0192%-0.0048%-0.5645 "
      },
      "uniquefyingPropertyKeys": [],
      "allowedMutationTypes": [
        "DELETE",
        "EXTEND",
        "CHANGEBRANCH",
        "CHANGELINK",
        "ADDLINK",
        "DELETELINK",
        "DELETECHAIN"
      ],
      "vertexType": "MolecularFragment"
    },
    {
      "lstAPs": [
        {
          "id": 205461,
          "atomPositionNumber": 0,
          "atomPositionNumberInMol": 8,
          "apClass": {
            "rule": "LPhospholeSubAlpha",
            "subClass": 0,
            "bndTyp": "SINGLE"
          },
          "dirVec": {
            "x": -0.8999,
            "y": 5.4204,
            "z": 13.4669
          }
        },
        {
          "id": 205462,
          "atomPositionNumber": 15,
          "atomPositionNumberInMol": 23,
          "apClass": {
            "rule": "LPhospholeSubAlpha",
            "subClass": 0,
            "bndTyp": "SINGLE"
          },
          "dirVec": {
            "x": 3.5623,
            "y": 2.5529,
            "z": 12.0521
          }
        },
        {
          "id": 205463,
          "atomPositionNumber": 16,
          "atomPositionNumberInMol": 24,
          "apClass": {
            "rule": "LPhospholeSubR",
            "subClass": 0,
            "bndTyp": "SINGLE"
          },
          "dirVec": {
            "x": 2.0225,
            "y": 5.5716,
            "z": 11.2441
          }
        },
        {
          "id": 205464,
          "atomPositionNumber": 16,
          "atomPositionNumberInMol": 24,
          "apClass": {
            "rule": "MPhosphole",
            "subClass": 1,
            "bndTyp": "SINGLE"
          },
          "dirVec": {
            "x": -0.1011,
            "y": 3.0668,
            "z": 10.3957
          }
        }
      ],
      "lstSymAPs": [
        {
          "symIds": [
            0,
            1
          ]
        }
      ],
      "mol": {
        "atoms": [
          {
            "elSymbol": "C",
            "p3d": {
              "x": 0.2969,
              "y": 4.5574,
              "z": 13.4258
            }
          },
          {
            "elSymbol": "C",
            "p3d": {
              "x": 0.8881,
              "y": 3.9044,
              "z": 14.4404
            }
          },
          {
            "elSymbol": "C",
            "p3d": {
              "x": 0.3791,
              "y": 3.8614,
              "z": 15.8547
            }
          },
          {
            "elSymbol": "H",
            "p3d": {
              "x": -0.4577,
              "y": 3.1638,
              "z": 15.8925
            }
          },
          {
            "elSymbol": "H",
            "p3d": {
              "x": 0.0028,
              "y": 4.8434,
              "z": 16.1153
            }
          },
          {
            "elSymbol": "C",
            "p3d": {
              "x": 1.435,
              "y": 3.4448,
              "z": 16.8579
            }
          },
          {
            "elSymbol": "H",
            "p3d": {
              "x": 2.1653,
              "y": 4.2406,
              "z": 16.9817
            }
          },
          {
            "elSymbol": "H",
            "p3d": {
              "x": 0.9586,
              "y": 3.2608,
              "z": 17.8327
            }
          },
          {
            "elSymbol": "C",
            "p3d": {
              "x": 2.1393,
              "y": 2.1908,
              "z": 16.397
            }
          },
          {
            "elSymbol": "H",
            "p3d": {
              "x": 1.413,
              "y": 1.4059,
              "z": 16.2173
            }
          },
          {
            "elSymbol": "H",
            "p3d": {
              "x": 2.8146,
              "y": 1.8507,
              "z": 17.1898
            }
          },
          {
            "elSymbol": "C",
            "p3d": {
              "x": 2.9464,
              "y": 2.4652,
              "z": 15.1475
            }
          },
          {
            "elSymbol": "H",
            "p3d": {
              "x": 3.7862,
              "y": 3.1033,
              "z": 15.3872
            }
          },
          {
            "elSymbol": "H",
            "p3d": {
              "x": 3.33,
              "y": 1.5425,
              "z": 14.7475
            }
          },
          {
            "elSymbol": "C",
            "p3d": {
              "x": 2.1189,
              "y": 3.16,
              "z": 14.0576
            }
          },
          {
            "elSymbol": "C",
            "p3d": {
              "x": 2.4181,
              "y": 3.1603,
              "z": 12.7535
            }
          },
          {
            "elSymbol": "P",
            "p3d": {
              "x": 1.1632,
              "y": 4.1331,
              "z": 11.8989
            }
          }
        ],
        "bonds": [
          {
            "atomIds": [
              0,
              1
            ],
            "bo": "DOUBLE"
          },
          {
            "atomIds": [
              1,
              2
            ],
            "bo": "SINGLE"
          },
          {
            "atomIds": [
              2,
              3
            ],
            "bo": "SINGLE"
          },
          {
            "atomIds": [
              4,
              2
            ],
            "bo": "SINGLE"
          },
          {
            "atomIds": [
              5,
              2
            ],
            "bo": "SINGLE"
          },
          {
            "atomIds": [
              6,
              5
            ],
            "bo": "SINGLE"
          },
          {
            "atomIds": [
              7,
              5
            ],
            "bo": "SINGLE"
          },
          {
            "atomIds": [
              8,
              5
            ],
            "bo": "SINGLE"
          },
          {
            "atomIds": [
              9,
              8
            ],
            "bo": "SINGLE"
          },
          {
            "atomIds": [
              10,
              8
            ],
            "bo": "SINGLE"
          },
          {
            "atomIds": [
              11,
              8
            ],
            "bo": "SINGLE"
          },
          {
            "atomIds": [
              11,
              14
            ],
            "bo": "SINGLE"
          },
          {
            "atomIds": [
              12,
              11
            ],
            "bo": "SINGLE"
          },
          {
            "atomIds": [
              13,
              11
            ],
            "bo": "SINGLE"
          },
          {
            "atomIds": [
              14,
              1
            ],
            "bo": "SINGLE"
          },
          {
            "atomIds": [
              15,
              14
            ],
            "bo": "DOUBLE"
          },
          {
            "atomIds": [
              15,
              16
            ],
            "bo": "SINGLE"
          },
          {
            "atomIds": [
              16,
              0
            ],
            "bo": "SINGLE"
          }
        ]
      },
      "vertexId": 113,
      "buildingBlockId": 52,
      "buildingBlockType": "FRAGMENT",
      "isRCV": false,
      "properties": {
        "ATTACHMENT_POINTS": "1#LPhospholeSubAlpha:0:SINGLE:-0.8999%5.4204%13.4669 16#LPhospholeSubAlpha:0:SINGLE:3.5623%2.5529%12.0521 17#LPhospholeSubR:0:SINGLE:2.0225%5.5716%11.2441,MPhosphole:1:SINGLE:-0.1011%3.0668%10.3957 "
      },
      "uniquefyingPropertyKeys": [],
      "allowedMutationTypes": [
        "DELETE",
        "EXTEND",
        "CHANGEBRANCH",
        "CHANGELINK",
        "ADDLINK",
        "DELETELINK",
        "DELETECHAIN"
      ],
      "vertexType": "MolecularFragment"
    },
    {
      "lstAPs": [
        {
          "id": 205465,
          "atomPositionNumber": 0,
          "atomPositionNumberInMol": 69,
          "apClass": {
            "rule": "Xlig",
            "subClass": 1,
            "bndTyp": "SINGLE"
          },
          "dirVec": {
            "x": -0.102,
            "y": 0.0185,
            "z": -1.0265
          }
        }
      ],
      "lstSymAPs": [],
      "mol": {
        "atoms": [
          {
            "elSymbol": "S",
            "p3d": {
              "x": -0.3267,
              "y": 2.3403,
              "z": -1.0022
            }
          },
          {
            "elSymbol": "C",
            "p3d": {
              "x": -0.626,
              "y": 2.4866,
              "z": 0.7805
            }
          },
          {
            "elSymbol": "H",
            "p3d": {
              "x": 0.1766,
              "y": 3.089,
              "z": 1.2414
            }
          },
          {
            "elSymbol": "H",
            "p3d": {
              "x": -0.651,
              "y": 1.5065,
              "z": 1.2643
            }
          },
          {
            "elSymbol": "H",
            "p3d": {
              "x": -1.5658,
              "y": 2.981,
              "z": 0.9515
            }
          }
        ],
        "bonds": [
          {
            "atomIds": [
              1,
              2
            ],
            "bo": "SINGLE"
          },
          {
            "atomIds": [
              1,
              3
            ],
            "bo": "SINGLE"
          },
          {
            "atomIds": [
              1,
              4
            ],
            "bo": "SINGLE"
          },
          {
            "atomIds": [
              0,
              1
            ],
            "bo": "SINGLE"
          }
        ]
      },
      "vertexId": 85,
      "buildingBlockId": 63,
      "buildingBlockType": "FRAGMENT",
      "isRCV": false,
      "properties": {
        "ATTACHMENT_POINTS": "1#Xlig:1:SINGLE:-0.1020%0.0185%-1.0265 "
      },
      "uniquefyingPropertyKeys": [],
      "allowedMutationTypes": [
        "DELETE",
        "EXTEND",
        "CHANGEBRANCH",
        "CHANGELINK",
        "ADDLINK",
        "DELETELINK",
        "DELETECHAIN"
      ],
      "vertexType": "MolecularFragment"
    },
    {
      "lstAPs": [
        {
          "id": 205502,
          "atomPositionNumber": 0,
          "atomPositionNumberInMol": 25,
          "apClass": {
            "rule": "SubRM",
            "subClass": 1,
            "bndTyp": "SINGLE"
          },
          "dirVec": {
            "x": 0.2917,
            "y": 0.3929,
            "z": -0.6365
          }
        }
      ],
      "lstSymAPs": [],
      "mol": {
        "atoms": [
          {
            "elSymbol": "C",
            "p3d": {
              "x": 1.7002,
              "y": 0.56,
              "z": -1.2045
            }
          },
          {
            "elSymbol": "C",
            "p3d": {
              "x": 3.564,
              "y": -0.7339,
              "z": -2.2652
            }
          },
          {
            "elSymbol": "C",
            "p3d": {
              "x": 2.9237,
              "y": 1.5034,
              "z": -3.1926
            }
          },
          {
            "elSymbol": "C",
            "p3d": {
              "x": 3.4145,
              "y": 0.0994,
              "z": -3.5498
            }
          },
          {
            "elSymbol": "C",
            "p3d": {
              "x": 1.5576,
              "y": 1.3879,
              "z": -2.5024
            }
          },
          {
            "elSymbol": "C",
            "p3d": {
              "x": 2.203,
              "y": -0.843,
              "z": -1.5702
            }
          },
          {
            "elSymbol": "H",
            "p3d": {
              "x": 4.3384,
              "y": -0.3241,
              "z": -1.6106
            }
          },
          {
            "elSymbol": "H",
            "p3d": {
              "x": 3.6361,
              "y": 2.0524,
              "z": -2.5991
            }
          },
          {
            "elSymbol": "H",
            "p3d": {
              "x": 2.7828,
              "y": -0.3911,
              "z": -4.2916
            }
          },
          {
            "elSymbol": "H",
            "p3d": {
              "x": 0.7737,
              "y": 0.9833,
              "z": -3.15
            }
          },
          {
            "elSymbol": "H",
            "p3d": {
              "x": 1.4815,
              "y": -1.3988,
              "z": -2.1783
            }
          },
          {
            "elSymbol": "H",
            "p3d": {
              "x": 2.3445,
              "y": 1.0609,
              "z": -0.4835
            }
          },
          {
            "elSymbol": "H",
            "p3d": {
              "x": 3.8429,
              "y": -1.7623,
              "z": -2.577
            }
          },
          {
            "elSymbol": "H",
            "p3d": {
              "x": 2.7428,
              "y": 2.0124,
              "z": -4.146
            }
          },
          {
            "elSymbol": "H",
            "p3d": {
              "x": 4.4291,
              "y": 0.2183,
              "z": -3.9628
            }
          },
          {
            "elSymbol": "H",
            "p3d": {
              "x": 1.2819,
              "y": 2.4034,
              "z": -2.1821
            }
          },
          {
            "elSymbol": "H",
            "p3d": {
              "x": 2.3734,
              "y": -1.3662,
              "z": -0.6149
            }
          }
        ],
        "bonds": [
          {
            "atomIds": [
              0,
              11
            ],
            "bo": "SINGLE"
          },
          {
            "atomIds": [
              0,
              4
            ],
            "bo": "SINGLE"
          },
          {
            "atomIds": [
              0,
              5
            ],
            "bo": "SINGLE"
          },
          {
            "atomIds": [
              1,
              6
            ],
            "bo": "SINGLE"
          },
          {
            "atomIds": [
              1,
              12
            ],
            "bo": "SINGLE"
          },
          {
            "atomIds": [
              1,
              3
            ],
            "bo": "SINGLE"
          },
          {
            "atomIds": [
              1,
              5
            ],
            "bo": "SINGLE"
          },
          {
            "atomIds": [
              2,
              7
            ],
            "bo": "SINGLE"
          },
          {
            "atomIds": [
              2,
              13
            ],
            "bo": "SINGLE"
          },
          {
            "atomIds": [
              2,
              4
            ],
            "bo": "SINGLE"
          },
          {
            "atomIds": [
              2,
              3
            ],
            "bo": "SINGLE"
          },
          {
            "atomIds": [
              3,
              8
            ],
            "bo": "SINGLE"
          },
          {
            "atomIds": [
              3,
              14
            ],
            "bo": "SINGLE"
          },
          {
            "atomIds": [
              4,
              9
            ],
            "bo": "SINGLE"
          },
          {
            "atomIds": [
              4,
              15
            ],
            "bo": "SINGLE"
          },
          {
            "atomIds": [
              5,
              10
            ],
            "bo": "SINGLE"
          },
          {
            "atomIds": [
              5,
              16
            ],
            "bo": "SINGLE"
          }
        ]
      },
      "vertexId": 156671,
      "buildingBlockId": 34,
      "buildingBlockType": "FRAGMENT",
      "isRCV": false,
      "properties": {
        "ATTACHMENT_POINTS": "1#SubRM:1:SINGLE:0.2917%0.3929%-0.6365 "
      },
      "uniquefyingPropertyKeys": [],
      "allowedMutationTypes": [
        "DELETE",
        "EXTEND",
        "CHANGEBRANCH",
        "CHANGELINK",
        "ADDLINK",
        "DELETELINK",
        "DELETECHAIN"
      ],
      "vertexType": "MolecularFragment"
    },
    {
      "lstAPs": [
        {
          "id": 205503,
          "atomPositionNumber": 1,
          "atomPositionNumberInMol": 43,
          "apClass": {
            "rule": "SubRM",
            "subClass": 1,
            "bndTyp": "SINGLE"
          },
          "dirVec": {
            "x": 0.2868,
            "y": 0.385,
            "z": -0.643
          }
        }
      ],
      "lstSymAPs": [],
      "mol": {
        "atoms": [
          {
            "elSymbol": "C",
            "p3d": {
              "x": 1.141,
              "y": 1.0262,
              "z": 1.6347
            }
          },
          {
            "elSymbol": "C",
            "p3d": {
              "x": 0.3967,
              "y": -0.0479,
              "z": 0.8227
            }
          },
          {
            "elSymbol": "C",
            "p3d": {
              "x": 1.1459,
              "y": -1.371,
              "z": 0.9201
            }
          },
          {
            "elSymbol": "H",
            "p3d": {
              "x": 2.1461,
              "y": -1.2583,
              "z": 0.4976
            }
          },
          {
            "elSymbol": "H",
            "p3d": {
              "x": 0.6013,
              "y": -2.1408,
              "z": 0.3461
            }
          },
          {
            "elSymbol": "H",
            "p3d": {
              "x": 1.2113,
              "y": -1.6946,
              "z": 1.9559
            }
          },
          {
            "elSymbol": "H",
            "p3d": {
              "x": 2.1541,
              "y": 1.1435,
              "z": 1.2119
            }
          },
          {
            "elSymbol": "H",
            "p3d": {
              "x": 0.6143,
              "y": 1.976,
              "z": 1.5626
            }
          },
          {
            "elSymbol": "H",
            "p3d": {
              "x": 1.2058,
              "y": 0.7088,
              "z": 2.6868
            }
          },
          {
            "elSymbol": "H",
            "p3d": {
              "x": -0.6215,
              "y": -0.1789,
              "z": 1.2377
            }
          }
        ],
        "bonds": [
          {
            "atomIds": [
              0,
              1
            ],
            "bo": "SINGLE"
          },
          {
            "atomIds": [
              1,
              2
            ],
            "bo": "SINGLE"
          },
          {
            "atomIds": [
              2,
              3
            ],
            "bo": "SINGLE"
          },
          {
            "atomIds": [
              2,
              4
            ],
            "bo": "SINGLE"
          },
          {
            "atomIds": [
              2,
              5
            ],
            "bo": "SINGLE"
          },
          {
            "atomIds": [
              0,
              6
            ],
            "bo": "SINGLE"
          },
          {
            "atomIds": [
              0,
              7
            ],
            "bo": "SINGLE"
          },
          {
            "atomIds": [
              0,
              8
            ],
            "bo": "SINGLE"
          },
          {
            "atomIds": [
              1,
              9
            ],
            "bo": "SINGLE"
          }
        ]
      },
      "vertexId": 156678,
      "buildingBlockId": 32,
      "buildingBlockType": "FRAGMENT",
      "isRCV": false,
      "properties": {
        "ATTACHMENT_POINTS": "2#SubRM:1:SINGLE:0.2868%0.3850%-0.6430 "
      },
      "uniquefyingPropertyKeys": [],
      "allowedMutationTypes": [
        "DELETE",
        "EXTEND",
        "CHANGEBRANCH",
        "CHANGELINK",
        "ADDLINK",
        "DELETELINK",
        "DELETECHAIN"
      ],
      "vertexType": "MolecularFragment"
    },
    {
      "lstAPs": [
        {
          "id": 205504,
          "atomPositionNumber": 0,
          "atomPositionNumberInMol": 52,
          "apClass": {
            "rule": "SubRM",
            "subClass": 1,
            "bndTyp": "SINGLE"
          },
          "dirVec": {
            "x": 0.2917,
            "y": 0.3929,
            "z": -0.6365
          }
        }
      ],
      "lstSymAPs": [],
      "mol": {
        "atoms": [
          {
            "elSymbol": "C",
            "p3d": {
              "x": 1.7002,
              "y": 0.56,
              "z": -1.2045
            }
          },
          {
            "elSymbol": "C",
            "p3d": {
              "x": 3.564,
              "y": -0.7339,
              "z": -2.2652
            }
          },
          {
            "elSymbol": "C",
            "p3d": {
              "x": 2.9237,
              "y": 1.5034,
              "z": -3.1926
            }
          },
          {
            "elSymbol": "C",
            "p3d": {
              "x": 3.4145,
              "y": 0.0994,
              "z": -3.5498
            }
          },
          {
            "elSymbol": "C",
            "p3d": {
              "x": 1.5576,
              "y": 1.3879,
              "z": -2.5024
            }
          },
          {
            "elSymbol": "C",
            "p3d": {
              "x": 2.203,
              "y": -0.843,
              "z": -1.5702
            }
          },
          {
            "elSymbol": "H",
            "p3d": {
              "x": 4.3384,
              "y": -0.3241,
              "z": -1.6106
            }
          },
          {
            "elSymbol": "H",
            "p3d": {
              "x": 3.6361,
              "y": 2.0524,
              "z": -2.5991
            }
          },
          {
            "elSymbol": "H",
            "p3d": {
              "x": 2.7828,
              "y": -0.3911,
              "z": -4.2916
            }
          },
          {
            "elSymbol": "H",
            "p3d": {
              "x": 0.7737,
              "y": 0.9833,
              "z": -3.15
            }
          },
          {
            "elSymbol": "H",
            "p3d": {
              "x": 1.4815,
              "y": -1.3988,
              "z": -2.1783
            }
          },
          {
            "elSymbol": "H",
            "p3d": {
              "x": 2.3445,
              "y": 1.0609,
              "z": -0.4835
            }
          },
          {
            "elSymbol": "H",
            "p3d": {
              "x": 3.8429,
              "y": -1.7623,
              "z": -2.577
            }
          },
          {
            "elSymbol": "H",
            "p3d": {
              "x": 2.7428,
              "y": 2.0124,
              "z": -4.146
            }
          },
          {
            "elSymbol": "H",
            "p3d": {
              "x": 4.4291,
              "y": 0.2183,
              "z": -3.9628
            }
          },
          {
            "elSymbol": "H",
            "p3d": {
              "x": 1.2819,
              "y": 2.4034,
              "z": -2.1821
            }
          },
          {
            "elSymbol": "H",
            "p3d": {
              "x": 2.3734,
              "y": -1.3662,
              "z": -0.6149
            }
          }
        ],
        "bonds": [
          {
            "atomIds": [
              0,
              11
            ],
            "bo": "SINGLE"
          },
          {
            "atomIds": [
              0,
              4
            ],
            "bo": "SINGLE"
          },
          {
            "atomIds": [
              0,
              5
            ],
            "bo": "SINGLE"
          },
          {
            "atomIds": [
              1,
              6
            ],
            "bo": "SINGLE"
          },
          {
            "atomIds": [
              1,
              12
            ],
            "bo": "SINGLE"
          },
          {
            "atomIds": [
              1,
              3
            ],
            "bo": "SINGLE"
          },
          {
            "atomIds": [
              1,
              5
            ],
            "bo": "SINGLE"
          },
          {
            "atomIds": [
              2,
              7
            ],
            "bo": "SINGLE"
          },
          {
            "atomIds": [
              2,
              13
            ],
            "bo": "SINGLE"
          },
          {
            "atomIds": [
              2,
              4
            ],
            "bo": "SINGLE"
          },
          {
            "atomIds": [
              2,
              3
            ],
            "bo": "SINGLE"
          },
          {
            "atomIds": [
              3,
              8
            ],
            "bo": "SINGLE"
          },
          {
            "atomIds": [
              3,
              14
            ],
            "bo": "SINGLE"
          },
          {
            "atomIds": [
              4,
              9
            ],
            "bo": "SINGLE"
          },
          {
            "atomIds": [
              4,
              15
            ],
            "bo": "SINGLE"
          },
          {
            "atomIds": [
              5,
              10
            ],
            "bo": "SINGLE"
          },
          {
            "atomIds": [
              5,
              16
            ],
            "bo": "SINGLE"
          }
        ]
      },
      "vertexId": 157035,
      "buildingBlockId": 34,
      "buildingBlockType": "FRAGMENT",
      "isRCV": false,
      "properties": {
        "ATTACHMENT_POINTS": "1#SubRM:1:SINGLE:0.2917%0.3929%-0.6365 "
      },
      "uniquefyingPropertyKeys": [],
      "allowedMutationTypes": [
        "DELETE",
        "EXTEND",
        "CHANGEBRANCH",
        "CHANGELINK",
        "ADDLINK",
        "DELETELINK",
        "DELETECHAIN"
      ],
      "vertexType": "MolecularFragment"
    }
  ],
  "gEdges": [
    {
      "srcAPID": 205457,
      "trgAPID": 205460,
      "bondType": "SINGLE"
    },
    {
      "srcAPID": 205459,
      "trgAPID": 205464,
      "bondType": "SINGLE"
    },
    {
      "srcAPID": 205458,
      "trgAPID": 205465,
      "bondType": "SINGLE"
    },
    {
      "srcAPID": 205461,
      "trgAPID": 205502,
      "bondType": "SINGLE"
    },
    {
      "srcAPID": 205463,
      "trgAPID": 205503,
      "bondType": "SINGLE"
    },
    {
      "srcAPID": 205462,
      "trgAPID": 205504,
      "bondType": "SINGLE"
    }
  ],
  "gRings": [],
  "symVertices": [
    {
      "symIds": [
        156671,
        157035
      ]
    }
  ]
}

> <SMILES>
[Pt](C#O)(C#N)([P]1(C(=C2C(C(C(C(C2=C1C3([H])C(C([H])([H])C(C([H])([H])C3([H])[H])([H])[H])([H])[H])([H])[H])([H])[H])([H])[H])([H])[H])C4([H])C(C([H])([H])C(C([H])([H])C4([H])[H])([H])[H])([H])[H])C(C([H])([H])[H])(C([H])([H])[H])[H])SC([H])([H])[H]

$$$$
