M00011126
  CDK     04222212393D

 31 33  0  0  0  0  0  0  0  0999 V2000
   -2.8544    0.9970   -0.3927 Pt  0  0  0  0  0  0  0  0  0  0  0  0
   -4.7970    1.1944   -0.5026 C   0  0  0  0  0  0  0  0  0  0  0  0
   -5.9287    1.3153   -0.5700 O   0  0  0  0  0  0  0  0  0  0  0  0
   -2.7397    1.9679    1.3254 C   0  0  0  0  0  0  0  0  0  0  0  0
   -2.6776    2.5531    2.3209 N   0  0  0  0  0  0  0  0  0  0  0  0
   -0.5817    0.8922   -0.1953 P   0  0  0  0  0  0  0  0  0  0  0  0
    0.1992    0.1156    1.2918 C   0  0  0  0  0  0  0  0  0  0  0  0
    0.0414    0.4079    2.6332 C   0  0  0  0  0  0  0  0  0  0  0  0
    0.7879   -0.3373    3.5654 C   0  0  0  0  0  0  0  0  0  0  0  0
    1.6594   -1.3382    3.1374 C   0  0  0  0  0  0  0  0  0  0  0  0
    1.8142   -1.6247    1.7709 C   0  0  0  0  0  0  0  0  0  0  0  0
    1.0813   -0.8945    0.8360 C   0  0  0  0  0  0  0  0  0  0  0  0
    1.1330   -1.0832   -0.6334 C   0  0  0  0  0  0  0  0  0  0  0  0
    1.9025   -2.0295   -1.3085 C   0  0  0  0  0  0  0  0  0  0  0  0
    1.8166   -2.1053   -2.7094 C   0  0  0  0  0  0  0  0  0  0  0  0
    0.9716   -1.2578   -3.4254 C   0  0  0  0  0  0  0  0  0  0  0  0
    0.1888   -0.2972   -2.7564 C   0  0  0  0  0  0  0  0  0  0  0  0
    0.2997   -0.2195   -1.3815 C   0  0  0  0  0  0  0  0  0  0  0  0
   -0.6377    1.1875    2.9928 H   0  0  0  0  0  0  0  0  0  0  0  0
    0.6764   -0.1270    4.6295 H   0  0  0  0  0  0  0  0  0  0  0  0
    2.2305   -1.9104    3.8707 H   0  0  0  0  0  0  0  0  0  0  0  0
    2.4980   -2.4102    1.4540 H   0  0  0  0  0  0  0  0  0  0  0  0
    2.5565   -2.7097   -0.7665 H   0  0  0  0  0  0  0  0  0  0  0  0
    2.4163   -2.8468   -3.2401 H   0  0  0  0  0  0  0  0  0  0  0  0
    0.9029   -1.3430   -4.5100 H   0  0  0  0  0  0  0  0  0  0  0  0
   -0.4932    0.3403   -3.3266 H   0  0  0  0  0  0  0  0  0  0  0  0
    0.0747    2.6306   -0.3823 C   0  0  0  0  0  0  0  0  0  0  0  0
   -0.2604    3.2721    0.4513 H   0  0  0  0  0  0  0  0  0  0  0  0
    1.1737    2.6565   -0.3984 H   0  0  0  0  0  0  0  0  0  0  0  0
   -0.2861    3.0944   -1.3139 H   0  0  0  0  0  0  0  0  0  0  0  0
   -3.1682   -0.0907   -2.4664 Cl  0  0  0  0  0  0  0  0  0  0  0  0
  2  3  3  0  0  0  0
  1  2  1  0  0  0  0
  4  5  3  0  0  0  0
  1  4  1  0  0  0  0
  6  7  1  0  0  0  0
  7  8  2  0  0  0  0
  8  9  1  0  0  0  0
  9 10  2  0  0  0  0
 10 11  1  0  0  0  0
 11 12  2  0  0  0  0
 12  7  1  0  0  0  0
 13 12  1  0  0  0  0
 13 18  1  0  0  0  0
 14 13  2  0  0  0  0
 15 14  1  0  0  0  0
 16 15  2  0  0  0  0
 17 16  1  0  0  0  0
 17 18  2  0  0  0  0
 18  6  1  0  0  0  0
 19  8  1  0  0  0  0
 20  9  1  0  0  0  0
 21 10  1  0  0  0  0
 22 11  1  0  0  0  0
 23 14  1  0  0  0  0
 24 15  1  0  0  0  0
 25 16  1  0  0  0  0
 26 17  1  0  0  0  0
  1  6  1  0  0  0  0
 27 28  1  0  0  0  0
 27 29  1  0  0  0  0
 27 30  1  0  0  0  0
  6 27  1  0  0  0  0
  1 31  1  0  0  0  0
M  END
> <PM6_ENERGY>
121.513

> <UID>
YNHSWBUTUZQYGF-YODKVISXNA-M

> <FITNESS>
1.14013

> <GCODE>
12165

> <GraphENC>
12165 72_1_0,81_66_1,117_57_1,88_67_1,249344_31_1, 72_0_81_0_SINGLE_Xlig:0_Xlig:1,72_2_117_1_SINGLE_scaff:0_MPhosphole:1,72_1_88_0_SINGLE_Xlig:0_Xlig:1,117_0_249344_0_SINGLE_LPhospholeSubR:0_SubRS:1, 

> <GraphJson>
{
  "graphId": 12165,
  "gVertices": [
    {
      "lstAPs": [
        {
          "id": 325323,
          "atomPositionNumber": 0,
          "atomPositionNumberInMol": 0,
          "apClass": {
            "rule": "Xlig",
            "subClass": 0,
            "bndTyp": "SINGLE"
          },
          "dirVec": {
            "x": -2.3339,
            "y": -0.0087,
            "z": 0.8172
          }
        },
        {
          "id": 325324,
          "atomPositionNumber": 0,
          "atomPositionNumberInMol": 0,
          "apClass": {
            "rule": "Xlig",
            "subClass": 0,
            "bndTyp": "SINGLE"
          },
          "dirVec": {
            "x": 2.336,
            "y": -5.0E-4,
            "z": 0.829
          }
        },
        {
          "id": 325325,
          "atomPositionNumber": 0,
          "atomPositionNumberInMol": 0,
          "apClass": {
            "rule": "scaff",
            "subClass": 0,
            "bndTyp": "SINGLE"
          },
          "dirVec": {
            "x": -0.0095,
            "y": 0.0046,
            "z": -1.7113
          }
        }
      ],
      "lstSymAPs": [
        {
          "symIds": [
            0,
            1
          ]
        }
      ],
      "mol": {
        "atoms": [
          {
            "elSymbol": "Pt",
            "p3d": {
              "x": -0.0098,
              "y": 0.0049,
              "z": 0.6289
            }
          },
          {
            "elSymbol": "C",
            "p3d": {
              "x": -6.0E-4,
              "y": 0.0016,
              "z": 2.5609
            }
          },
          {
            "elSymbol": "O",
            "p3d": {
              "x": 0.0025,
              "y": -0.0041,
              "z": 3.6974
            }
          },
          {
            "elSymbol": "Du",
            "p3d": {
              "x": -0.007,
              "y": 1.0013,
              "z": 0.6372
            }
          },
          {
            "elSymbol": "Du",
            "p3d": {
              "x": -0.0014,
              "y": 0.9902,
              "z": 2.5698
            }
          }
        ],
        "bonds": [
          {
            "atomIds": [
              1,
              2
            ],
            "bo": "TRIPLE"
          },
          {
            "atomIds": [
              0,
              1
            ],
            "bo": "SINGLE"
          },
          {
            "atomIds": [
              3,
              0
            ],
            "bo": "SINGLE"
          },
          {
            "atomIds": [
              4,
              1
            ],
            "bo": "SINGLE"
          }
        ]
      },
      "vertexId": 72,
      "buildingBlockId": 0,
      "buildingBlockType": "SCAFFOLD",
      "isRCV": false,
      "properties": {
        "ATTACHMENT_POINTS": "1#Xlig:0:SINGLE:-2.3339%-0.0087%0.8172,Xlig:0:SINGLE:2.3360%-0.0005%0.8290,scaff:0:SINGLE:-0.0095%0.0046%-1.7113 "
      },
      "uniquefyingPropertyKeys": [],
      "allowedMutationTypes": [
        "DELETE",
        "EXTEND",
        "CHANGEBRANCH",
        "CHANGELINK",
        "ADDLINK",
        "DELETELINK",
        "DELETECHAIN"
      ],
      "vertexType": "MolecularFragment"
    },
    {
      "lstAPs": [
        {
          "id": 325326,
          "atomPositionNumber": 0,
          "atomPositionNumberInMol": 5,
          "apClass": {
            "rule": "Xlig",
            "subClass": 1,
            "bndTyp": "SINGLE"
          },
          "dirVec": {
            "x": 0.0192,
            "y": -0.0048,
            "z": -0.5645
          }
        }
      ],
      "lstSymAPs": [],
      "mol": {
        "atoms": [
          {
            "elSymbol": "C",
            "p3d": {
              "x": -1.967,
              "y": -0.0075,
              "z": -0.4937
            }
          },
          {
            "elSymbol": "N",
            "p3d": {
              "x": -3.1263,
              "y": -0.0054,
              "z": -0.4354
            }
          },
          {
            "elSymbol": "Du",
            "p3d": {
              "x": -1.9744,
              "y": 0.9926,
              "z": -0.5036
            }
          }
        ],
        "bonds": [
          {
            "atomIds": [
              0,
              1
            ],
            "bo": "TRIPLE"
          },
          {
            "atomIds": [
              2,
              0
            ],
            "bo": "SINGLE"
          }
        ]
      },
      "vertexId": 81,
      "buildingBlockId": 65,
      "buildingBlockType": "FRAGMENT",
      "isRCV": false,
      "properties": {
        "ATTACHMENT_POINTS": "1#Xlig:1:SINGLE:0.0192%-0.0048%-0.5645 "
      },
      "uniquefyingPropertyKeys": [],
      "allowedMutationTypes": [
        "DELETE",
        "EXTEND",
        "CHANGEBRANCH",
        "CHANGELINK",
        "ADDLINK",
        "DELETELINK",
        "DELETECHAIN"
      ],
      "vertexType": "MolecularFragment"
    },
    {
      "lstAPs": [
        {
          "id": 325327,
          "atomPositionNumber": 0,
          "atomPositionNumberInMol": 8,
          "apClass": {
            "rule": "LPhospholeSubR",
            "subClass": 0,
            "bndTyp": "SINGLE"
          },
          "dirVec": {
            "x": 8.2979,
            "y": 3.6599,
            "z": 9.907
          }
        },
        {
          "id": 325328,
          "atomPositionNumber": 0,
          "atomPositionNumberInMol": 8,
          "apClass": {
            "rule": "MPhosphole",
            "subClass": 1,
            "bndTyp": "SINGLE"
          },
          "dirVec": {
            "x": 8.1114,
            "y": 1.563,
            "z": 6.7555
          }
        }
      ],
      "lstSymAPs": [],
      "mol": {
        "atoms": [
          {
            "elSymbol": "P",
            "p3d": {
              "x": 7.3852,
              "y": 3.3353,
              "z": 8.349
            }
          },
          {
            "elSymbol": "C",
            "p3d": {
              "x": 7.2878,
              "y": 5.0039,
              "z": 7.6394
            }
          },
          {
            "elSymbol": "C",
            "p3d": {
              "x": 8.2867,
              "y": 5.7253,
              "z": 7.0209
            }
          },
          {
            "elSymbol": "C",
            "p3d": {
              "x": 7.9761,
              "y": 6.9837,
              "z": 6.5025
            }
          },
          {
            "elSymbol": "C",
            "p3d": {
              "x": 6.7261,
              "y": 7.4825,
              "z": 6.6338
            }
          },
          {
            "elSymbol": "C",
            "p3d": {
              "x": 5.742,
              "y": 6.7839,
              "z": 7.2506
            }
          },
          {
            "elSymbol": "C",
            "p3d": {
              "x": 6.0001,
              "y": 5.545,
              "z": 7.7891
            }
          },
          {
            "elSymbol": "C",
            "p3d": {
              "x": 5.0707,
              "y": 4.6709,
              "z": 8.5094
            }
          },
          {
            "elSymbol": "C",
            "p3d": {
              "x": 3.7379,
              "y": 4.9022,
              "z": 8.8416
            }
          },
          {
            "elSymbol": "C",
            "p3d": {
              "x": 3.0581,
              "y": 3.9613,
              "z": 9.5076
            }
          },
          {
            "elSymbol": "C",
            "p3d": {
              "x": 3.592,
              "y": 2.7603,
              "z": 9.8266
            }
          },
          {
            "elSymbol": "C",
            "p3d": {
              "x": 4.9369,
              "y": 2.494,
              "z": 9.5465
            }
          },
          {
            "elSymbol": "C",
            "p3d": {
              "x": 5.6287,
              "y": 3.4387,
              "z": 8.8671
            }
          },
          {
            "elSymbol": "H",
            "p3d": {
              "x": 9.3019,
              "y": 5.3077,
              "z": 6.9257
            }
          },
          {
            "elSymbol": "H",
            "p3d": {
              "x": 8.7469,
              "y": 7.56,
              "z": 6.0141
            }
          },
          {
            "elSymbol": "H",
            "p3d": {
              "x": 6.5026,
              "y": 8.4647,
              "z": 6.2206
            }
          },
          {
            "elSymbol": "H",
            "p3d": {
              "x": 4.7435,
              "y": 7.2295,
              "z": 7.3444
            }
          },
          {
            "elSymbol": "H",
            "p3d": {
              "x": 3.2597,
              "y": 5.842,
              "z": 8.5703
            }
          },
          {
            "elSymbol": "H",
            "p3d": {
              "x": 2.0248,
              "y": 4.1573,
              "z": 9.8149
            }
          },
          {
            "elSymbol": "H",
            "p3d": {
              "x": 2.9835,
              "y": 2.0,
              "z": 10.2956
            }
          },
          {
            "elSymbol": "H",
            "p3d": {
              "x": 5.394,
              "y": 1.5535,
              "z": 9.8429
            }
          }
        ],
        "bonds": [
          {
            "atomIds": [
              0,
              1
            ],
            "bo": "SINGLE"
          },
          {
            "atomIds": [
              1,
              2
            ],
            "bo": "DOUBLE"
          },
          {
            "atomIds": [
              2,
              3
            ],
            "bo": "SINGLE"
          },
          {
            "atomIds": [
              3,
              4
            ],
            "bo": "DOUBLE"
          },
          {
            "atomIds": [
              4,
              5
            ],
            "bo": "SINGLE"
          },
          {
            "atomIds": [
              5,
              6
            ],
            "bo": "DOUBLE"
          },
          {
            "atomIds": [
              6,
              1
            ],
            "bo": "SINGLE"
          },
          {
            "atomIds": [
              7,
              6
            ],
            "bo": "SINGLE"
          },
          {
            "atomIds": [
              7,
              12
            ],
            "bo": "SINGLE"
          },
          {
            "atomIds": [
              8,
              7
            ],
            "bo": "DOUBLE"
          },
          {
            "atomIds": [
              9,
              8
            ],
            "bo": "SINGLE"
          },
          {
            "atomIds": [
              10,
              9
            ],
            "bo": "DOUBLE"
          },
          {
            "atomIds": [
              11,
              10
            ],
            "bo": "SINGLE"
          },
          {
            "atomIds": [
              11,
              12
            ],
            "bo": "DOUBLE"
          },
          {
            "atomIds": [
              12,
              0
            ],
            "bo": "SINGLE"
          },
          {
            "atomIds": [
              13,
              2
            ],
            "bo": "SINGLE"
          },
          {
            "atomIds": [
              14,
              3
            ],
            "bo": "SINGLE"
          },
          {
            "atomIds": [
              15,
              4
            ],
            "bo": "SINGLE"
          },
          {
            "atomIds": [
              16,
              5
            ],
            "bo": "SINGLE"
          },
          {
            "atomIds": [
              17,
              8
            ],
            "bo": "SINGLE"
          },
          {
            "atomIds": [
              18,
              9
            ],
            "bo": "SINGLE"
          },
          {
            "atomIds": [
              19,
              10
            ],
            "bo": "SINGLE"
          },
          {
            "atomIds": [
              20,
              11
            ],
            "bo": "SINGLE"
          }
        ]
      },
      "vertexId": 117,
      "buildingBlockId": 56,
      "buildingBlockType": "FRAGMENT",
      "isRCV": false,
      "properties": {
        "ATTACHMENT_POINTS": "1#LPhospholeSubR:0:SINGLE:8.2979%3.6599%9.9070,MPhosphole:1:SINGLE:8.1114%1.5630%6.7555 "
      },
      "uniquefyingPropertyKeys": [],
      "allowedMutationTypes": [
        "DELETE",
        "EXTEND",
        "CHANGEBRANCH",
        "CHANGELINK",
        "ADDLINK",
        "DELETELINK",
        "DELETECHAIN"
      ],
      "vertexType": "MolecularFragment"
    },
    {
      "lstAPs": [
        {
          "id": 325329,
          "atomPositionNumber": 0,
          "atomPositionNumberInMol": 33,
          "apClass": {
            "rule": "Xlig",
            "subClass": 1,
            "bndTyp": "SINGLE"
          },
          "dirVec": {
            "x": -0.0053,
            "y": -0.0027,
            "z": 0.63
          }
        }
      ],
      "lstSymAPs": [],
      "mol": {
        "atoms": [
          {
            "elSymbol": "Cl",
            "p3d": {
              "x": 2.3243,
              "y": -0.0063,
              "z": 0.8189
            }
          }
        ],
        "bonds": []
      },
      "vertexId": 88,
      "buildingBlockId": 66,
      "buildingBlockType": "FRAGMENT",
      "isRCV": false,
      "properties": {
        "ATTACHMENT_POINTS": "1#Xlig:1:SINGLE:-0.0053%-0.0027%0.6300 "
      },
      "uniquefyingPropertyKeys": [],
      "allowedMutationTypes": [
        "DELETE",
        "EXTEND",
        "CHANGEBRANCH",
        "CHANGELINK",
        "ADDLINK",
        "DELETELINK",
        "DELETECHAIN"
      ],
      "vertexType": "MolecularFragment"
    },
    {
      "lstAPs": [
        {
          "id": 325358,
          "atomPositionNumber": 0,
          "atomPositionNumberInMol": 29,
          "apClass": {
            "rule": "SubRS",
            "subClass": 1,
            "bndTyp": "SINGLE"
          },
          "dirVec": {
            "x": 0.2865,
            "y": 0.3959,
            "z": -0.6387
          }
        }
      ],
      "lstSymAPs": [],
      "mol": {
        "atoms": [
          {
            "elSymbol": "C",
            "p3d": {
              "x": 0.3969,
              "y": -0.0496,
              "z": 0.8235
            }
          },
          {
            "elSymbol": "H",
            "p3d": {
              "x": -0.6146,
              "y": -0.163,
              "z": 1.2402
            }
          },
          {
            "elSymbol": "H",
            "p3d": {
              "x": 0.9335,
              "y": -0.9979,
              "z": 0.8998
            }
          },
          {
            "elSymbol": "H",
            "p3d": {
              "x": 0.9252,
              "y": 0.7237,
              "z": 1.3995
            }
          }
        ],
        "bonds": [
          {
            "atomIds": [
              0,
              1
            ],
            "bo": "SINGLE"
          },
          {
            "atomIds": [
              0,
              2
            ],
            "bo": "SINGLE"
          },
          {
            "atomIds": [
              0,
              3
            ],
            "bo": "SINGLE"
          }
        ]
      },
      "vertexId": 249344,
      "buildingBlockId": 30,
      "buildingBlockType": "FRAGMENT",
      "isRCV": false,
      "properties": {
        "ATTACHMENT_POINTS": "1#SubRS:1:SINGLE:0.2865%0.3959%-0.6387 "
      },
      "uniquefyingPropertyKeys": [],
      "allowedMutationTypes": [
        "DELETE",
        "EXTEND",
        "CHANGEBRANCH",
        "CHANGELINK",
        "ADDLINK",
        "DELETELINK",
        "DELETECHAIN"
      ],
      "vertexType": "MolecularFragment"
    }
  ],
  "gEdges": [
    {
      "srcAPID": 325323,
      "trgAPID": 325326,
      "bondType": "SINGLE"
    },
    {
      "srcAPID": 325325,
      "trgAPID": 325328,
      "bondType": "SINGLE"
    },
    {
      "srcAPID": 325324,
      "trgAPID": 325329,
      "bondType": "SINGLE"
    },
    {
      "srcAPID": 325327,
      "trgAPID": 325358,
      "bondType": "SINGLE"
    }
  ],
  "gRings": [],
  "symVertices": []
}

> <SMILES>
[Pt](C#O)(C#N)([P]1(C2=C(C(=C(C(=C2C=3C1=C(C(=C(C3[H])[H])[H])[H])[H])[H])[H])[H])C([H])([H])[H])Cl

$$$$
