M00005157
  CDK     04222210333D

 38 40  0  0  0  0  0  0  0  0999 V2000
    1.6188    0.1938    0.3179 Pt  0  0  0  0  0  0  0  0  0  0  0  0
    3.5285    0.2483    0.4679 C   0  0  0  0  0  0  0  0  0  0  0  0
    4.6666    0.3174    0.5709 O   0  0  0  0  0  0  0  0  0  0  0  0
    1.6316   -1.7609   -0.2779 O   0  0  0  0  0  0  0  0  0  0  0  0
    1.6684   -1.8623   -1.6828 C   0  0  0  0  0  0  0  0  0  0  0  0
    1.7734   -2.9359   -1.8976 H   0  0  0  0  0  0  0  0  0  0  0  0
    2.5302   -1.3097   -2.0784 H   0  0  0  0  0  0  0  0  0  0  0  0
    0.7322   -1.4791   -2.1096 H   0  0  0  0  0  0  0  0  0  0  0  0
   -0.3903    0.2441    0.2136 C   0  0  2  0  0  0  0  0  0  0  0  0
   -1.1930    0.5588   -0.8752 N   0  0  0  0  0  0  0  0  0  0  0  0
   -2.5547    0.5264   -0.4644 C   0  0  0  0  0  0  0  0  0  0  0  0
   -2.5776    0.1629    0.8742 C   0  0  0  0  0  0  0  0  0  0  0  0
   -1.2311   -0.0137    1.2885 N   0  0  0  0  0  0  0  0  0  0  0  0
   -0.7075    0.8653   -2.2035 C   0  0  0  0  0  0  0  0  0  0  0  0
    0.2466    1.4699   -4.7442 C   0  0  0  0  0  0  0  0  0  0  0  0
    0.4214    1.6911   -2.3334 C   0  0  0  0  0  0  0  0  0  0  0  0
   -1.3490    0.3158   -3.3250 C   0  0  0  0  0  0  0  0  0  0  0  0
   -0.8648    0.6332   -4.5966 C   0  0  0  0  0  0  0  0  0  0  0  0
    0.8888    1.9901   -3.6157 C   0  0  0  0  0  0  0  0  0  0  0  0
    0.9274    2.1021   -1.4487 H   0  0  0  0  0  0  0  0  0  0  0  0
   -2.1981   -0.3587   -3.2192 H   0  0  0  0  0  0  0  0  0  0  0  0
   -1.3571    0.2205   -5.4780 H   0  0  0  0  0  0  0  0  0  0  0  0
    1.7601    2.6375   -3.7314 H   0  0  0  0  0  0  0  0  0  0  0  0
    0.6148    1.7146   -5.7407 H   0  0  0  0  0  0  0  0  0  0  0  0
   -3.8296    0.9278   -1.4724 Cl  0  0  0  0  0  0  0  0  0  0  0  0
   -0.7666   -0.4044    2.6038 C   0  0  0  0  0  0  0  0  0  0  0  0
    0.1571   -1.1860    5.1026 C   0  0  0  0  0  0  0  0  0  0  0  0
   -1.3314    0.1734    3.7501 C   0  0  0  0  0  0  0  0  0  0  0  0
    0.2702   -1.3511    2.6829 C   0  0  0  0  0  0  0  0  0  0  0  0
    0.7233   -1.7362    3.9471 C   0  0  0  0  0  0  0  0  0  0  0  0
   -0.8621   -0.2334    5.0023 C   0  0  0  0  0  0  0  0  0  0  0  0
   -2.1008    0.9413    3.6777 H   0  0  0  0  0  0  0  0  0  0  0  0
    0.7140   -1.7925    1.7750 H   0  0  0  0  0  0  0  0  0  0  0  0
    1.5260   -2.4710    4.0278 H   0  0  0  0  0  0  0  0  0  0  0  0
   -1.2899    0.2046    5.9047 H   0  0  0  0  0  0  0  0  0  0  0  0
    0.5169   -1.4955    6.0838 H   0  0  0  0  0  0  0  0  0  0  0  0
   -3.8918   -0.0946    1.8786 Cl  0  0  0  0  0  0  0  0  0  0  0  0
    1.5795    2.3464    1.1252 Cl  0  0  0  0  0  0  0  0  0  0  0  0
  2  3  3  0  0  0  0
  1  2  1  0  0  0  0
  5  6  1  0  0  0  0
  5  7  1  0  0  0  0
  5  8  1  0  0  0  0
  4  5  1  0  0  0  0
  1  4  1  0  0  0  0
 10  9  1  0  0  0  0
 11 10  1  0  0  0  0
 12 11  2  0  0  0  0
 12 13  1  0  0  0  0
 13  9  1  0  0  0  0
  1  9  1  0  0  0  0
 14 17  1  0  0  0  0
 17 18  2  0  0  0  0
 15 18  1  0  0  0  0
 15 19  2  0  0  0  0
 16 19  1  0  0  0  0
 14 16  2  0  0  0  0
 18 22  1  0  0  0  0
 19 23  1  0  0  0  0
 15 24  1  0  0  0  0
 16 20  1  0  0  0  0
 17 21  1  0  0  0  0
 10 14  1  0  0  0  0
 11 25  1  0  0  0  0
 26 29  1  0  0  0  0
 29 30  2  0  0  0  0
 27 30  1  0  0  0  0
 27 31  2  0  0  0  0
 28 31  1  0  0  0  0
 26 28  2  0  0  0  0
 30 34  1  0  0  0  0
 31 35  1  0  0  0  0
 27 36  1  0  0  0  0
 28 32  1  0  0  0  0
 29 33  1  0  0  0  0
 13 26  1  0  0  0  0
 12 37  1  0  0  0  0
  1 38  1  0  0  0  0
M  END
> <PM6_ENERGY>
58.887

> <UID>
OPWKXOJPXMNOAC-YMKLIYMENA-M

> <FITNESS>
1.14484

> <GCODE>
5936

> <GraphENC>
5936 72_1_0,80_65_1,97_19_1,88_67_1,117872_36_1,117880_21_1,118353_36_1,118354_21_1, 72_0_80_0_SINGLE_Xlig:0_Xlig:1,72_2_97_0_SINGLE_scaff:0_MImidazolylidene:1,72_1_88_0_SINGLE_Xlig:0_Xlig:1,97_1_117872_0_SINGLE_LImidazolylideneSubNL:0_SubArS:1,97_2_117880_0_SINGLE_LImidazolylideneSubCS:0_LImidazolylideneSubCS:1,97_4_118353_0_SINGLE_LImidazolylideneSubNL:0_SubArS:1,97_3_118354_0_SINGLE_LImidazolylideneSubCS:0_LImidazolylideneSubCS:1, SymmetricSet [symIds=[117872, 118353]] SymmetricSet [symIds=[117880, 118354]] 

> <GraphJson>
{
  "graphId": 5936,
  "gVertices": [
    {
      "lstAPs": [
        {
          "id": 155219,
          "atomPositionNumber": 0,
          "atomPositionNumberInMol": 0,
          "apClass": {
            "rule": "Xlig",
            "subClass": 0,
            "bndTyp": "SINGLE"
          },
          "dirVec": {
            "x": -2.3339,
            "y": -0.0087,
            "z": 0.8172
          }
        },
        {
          "id": 155220,
          "atomPositionNumber": 0,
          "atomPositionNumberInMol": 0,
          "apClass": {
            "rule": "Xlig",
            "subClass": 0,
            "bndTyp": "SINGLE"
          },
          "dirVec": {
            "x": 2.336,
            "y": -5.0E-4,
            "z": 0.829
          }
        },
        {
          "id": 155221,
          "atomPositionNumber": 0,
          "atomPositionNumberInMol": 0,
          "apClass": {
            "rule": "scaff",
            "subClass": 0,
            "bndTyp": "SINGLE"
          },
          "dirVec": {
            "x": -0.0095,
            "y": 0.0046,
            "z": -1.7113
          }
        }
      ],
      "lstSymAPs": [
        {
          "symIds": [
            0,
            1
          ]
        }
      ],
      "mol": {
        "atoms": [
          {
            "elSymbol": "Pt",
            "p3d": {
              "x": -0.0098,
              "y": 0.0049,
              "z": 0.6289
            }
          },
          {
            "elSymbol": "C",
            "p3d": {
              "x": -6.0E-4,
              "y": 0.0016,
              "z": 2.5609
            }
          },
          {
            "elSymbol": "O",
            "p3d": {
              "x": 0.0025,
              "y": -0.0041,
              "z": 3.6974
            }
          },
          {
            "elSymbol": "Du",
            "p3d": {
              "x": -0.007,
              "y": 1.0013,
              "z": 0.6372
            }
          },
          {
            "elSymbol": "Du",
            "p3d": {
              "x": -0.0014,
              "y": 0.9902,
              "z": 2.5698
            }
          }
        ],
        "bonds": [
          {
            "atomIds": [
              1,
              2
            ],
            "bo": "TRIPLE"
          },
          {
            "atomIds": [
              0,
              1
            ],
            "bo": "SINGLE"
          },
          {
            "atomIds": [
              3,
              0
            ],
            "bo": "SINGLE"
          },
          {
            "atomIds": [
              4,
              1
            ],
            "bo": "SINGLE"
          }
        ]
      },
      "vertexId": 72,
      "buildingBlockId": 0,
      "buildingBlockType": "SCAFFOLD",
      "isRCV": false,
      "properties": {
        "ATTACHMENT_POINTS": "1#Xlig:0:SINGLE:-2.3339%-0.0087%0.8172,Xlig:0:SINGLE:2.3360%-0.0005%0.8290,scaff:0:SINGLE:-0.0095%0.0046%-1.7113 "
      },
      "uniquefyingPropertyKeys": [],
      "allowedMutationTypes": [
        "DELETE",
        "EXTEND",
        "CHANGEBRANCH",
        "CHANGELINK",
        "ADDLINK",
        "DELETELINK",
        "DELETECHAIN"
      ],
      "vertexType": "MolecularFragment"
    },
    {
      "lstAPs": [
        {
          "id": 155222,
          "atomPositionNumber": 0,
          "atomPositionNumberInMol": 5,
          "apClass": {
            "rule": "Xlig",
            "subClass": 1,
            "bndTyp": "SINGLE"
          },
          "dirVec": {
            "x": -0.1753,
            "y": 0.0948,
            "z": -0.4464
          }
        }
      ],
      "lstSymAPs": [],
      "mol": {
        "atoms": [
          {
            "elSymbol": "O",
            "p3d": {
              "x": -0.3534,
              "y": 2.1044,
              "z": -0.7339
            }
          },
          {
            "elSymbol": "C",
            "p3d": {
              "x": -0.5345,
              "y": 2.7646,
              "z": 0.4801
            }
          },
          {
            "elSymbol": "H",
            "p3d": {
              "x": -0.3728,
              "y": 3.8337,
              "z": 0.2724
            }
          },
          {
            "elSymbol": "H",
            "p3d": {
              "x": 0.1816,
              "y": 2.4161,
              "z": 1.2384
            }
          },
          {
            "elSymbol": "H",
            "p3d": {
              "x": -1.553,
              "y": 2.6149,
              "z": 0.8489
            }
          }
        ],
        "bonds": [
          {
            "atomIds": [
              1,
              2
            ],
            "bo": "SINGLE"
          },
          {
            "atomIds": [
              1,
              3
            ],
            "bo": "SINGLE"
          },
          {
            "atomIds": [
              1,
              4
            ],
            "bo": "SINGLE"
          },
          {
            "atomIds": [
              0,
              1
            ],
            "bo": "SINGLE"
          }
        ]
      },
      "vertexId": 80,
      "buildingBlockId": 64,
      "buildingBlockType": "FRAGMENT",
      "isRCV": false,
      "properties": {
        "ATTACHMENT_POINTS": "1#Xlig:1:SINGLE:-0.1753%0.0948%-0.4464 "
      },
      "uniquefyingPropertyKeys": [],
      "allowedMutationTypes": [
        "DELETE",
        "EXTEND",
        "CHANGEBRANCH",
        "CHANGELINK",
        "ADDLINK",
        "DELETELINK",
        "DELETECHAIN"
      ],
      "vertexType": "MolecularFragment"
    },
    {
      "lstAPs": [
        {
          "id": 155223,
          "atomPositionNumber": 0,
          "atomPositionNumberInMol": 10,
          "apClass": {
            "rule": "MImidazolylidene",
            "subClass": 1,
            "bndTyp": "SINGLE"
          },
          "dirVec": {
            "x": 6.9056,
            "y": 0.097,
            "z": 12.1004
          }
        },
        {
          "id": 155224,
          "atomPositionNumber": 1,
          "atomPositionNumberInMol": 11,
          "apClass": {
            "rule": "LImidazolylideneSubNL",
            "subClass": 0,
            "bndTyp": "SINGLE"
          },
          "dirVec": {
            "x": 4.1123,
            "y": 2.1609,
            "z": 11.1322
          }
        },
        {
          "id": 155225,
          "atomPositionNumber": 2,
          "atomPositionNumberInMol": 12,
          "apClass": {
            "rule": "LImidazolylideneSubCS",
            "subClass": 0,
            "bndTyp": "SINGLE"
          },
          "dirVec": {
            "x": 2.203,
            "y": 3.3086,
            "z": 13.3341
          }
        },
        {
          "id": 155226,
          "atomPositionNumber": 3,
          "atomPositionNumberInMol": 13,
          "apClass": {
            "rule": "LImidazolylideneSubCS",
            "subClass": 0,
            "bndTyp": "SINGLE"
          },
          "dirVec": {
            "x": 3.4334,
            "y": 2.3948,
            "z": 16.1586
          }
        },
        {
          "id": 155227,
          "atomPositionNumber": 4,
          "atomPositionNumberInMol": 14,
          "apClass": {
            "rule": "LImidazolylideneSubNL",
            "subClass": 0,
            "bndTyp": "SINGLE"
          },
          "dirVec": {
            "x": 5.9067,
            "y": 0.5846,
            "z": 15.5163
          }
        }
      ],
      "lstSymAPs": [
        {
          "symIds": [
            1,
            4
          ]
        },
        {
          "symIds": [
            2,
            3
          ]
        }
      ],
      "mol": {
        "atoms": [
          {
            "elSymbol": "C",
            "p3d": {
              "x": 5.2812,
              "y": 1.2018,
              "z": 13.1656
            }
          },
          {
            "elSymbol": "N",
            "p3d": {
              "x": 4.2675,
              "y": 1.9426,
              "z": 12.5989
            }
          },
          {
            "elSymbol": "C",
            "p3d": {
              "x": 3.4407,
              "y": 2.4761,
              "z": 13.582
            }
          },
          {
            "elSymbol": "C",
            "p3d": {
              "x": 3.9357,
              "y": 2.0507,
              "z": 14.777
            }
          },
          {
            "elSymbol": "N",
            "p3d": {
              "x": 5.0694,
              "y": 1.2634,
              "z": 14.5115
            }
          }
        ],
        "bonds": [
          {
            "atomIds": [
              1,
              0
            ],
            "bo": "SINGLE"
          },
          {
            "atomIds": [
              2,
              1
            ],
            "bo": "SINGLE"
          },
          {
            "atomIds": [
              3,
              2
            ],
            "bo": "DOUBLE"
          },
          {
            "atomIds": [
              3,
              4
            ],
            "bo": "SINGLE"
          },
          {
            "atomIds": [
              4,
              0
            ],
            "bo": "SINGLE"
          }
        ]
      },
      "vertexId": 97,
      "buildingBlockId": 18,
      "buildingBlockType": "FRAGMENT",
      "isRCV": false,
      "properties": {
        "ATTACHMENT_POINTS": "1#MImidazolylidene:1:SINGLE:6.9056%0.0970%12.1004 2#LImidazolylideneSubNL:0:SINGLE:4.1123%2.1609%11.1322 3#LImidazolylideneSubCS:0:SINGLE:2.2030%3.3086%13.3341 4#LImidazolylideneSubCS:0:SINGLE:3.4334%2.3948%16.1586 5#LImidazolylideneSubNL:0:SINGLE:5.9067%0.5846%15.5163 "
      },
      "uniquefyingPropertyKeys": [],
      "allowedMutationTypes": [
        "DELETE",
        "EXTEND",
        "CHANGEBRANCH",
        "CHANGELINK",
        "ADDLINK",
        "DELETELINK",
        "DELETECHAIN"
      ],
      "vertexType": "MolecularFragment"
    },
    {
      "lstAPs": [
        {
          "id": 155228,
          "atomPositionNumber": 0,
          "atomPositionNumberInMol": 39,
          "apClass": {
            "rule": "Xlig",
            "subClass": 1,
            "bndTyp": "SINGLE"
          },
          "dirVec": {
            "x": -0.0053,
            "y": -0.0027,
            "z": 0.63
          }
        }
      ],
      "lstSymAPs": [],
      "mol": {
        "atoms": [
          {
            "elSymbol": "Cl",
            "p3d": {
              "x": 2.3243,
              "y": -0.0063,
              "z": 0.8189
            }
          }
        ],
        "bonds": []
      },
      "vertexId": 88,
      "buildingBlockId": 66,
      "buildingBlockType": "FRAGMENT",
      "isRCV": false,
      "properties": {
        "ATTACHMENT_POINTS": "1#Xlig:1:SINGLE:-0.0053%-0.0027%0.6300 "
      },
      "uniquefyingPropertyKeys": [],
      "allowedMutationTypes": [
        "DELETE",
        "EXTEND",
        "CHANGEBRANCH",
        "CHANGELINK",
        "ADDLINK",
        "DELETELINK",
        "DELETECHAIN"
      ],
      "vertexType": "MolecularFragment"
    },
    {
      "lstAPs": [
        {
          "id": 155271,
          "atomPositionNumber": 0,
          "atomPositionNumberInMol": 15,
          "apClass": {
            "rule": "SubArS",
            "subClass": 1,
            "bndTyp": "SINGLE"
          },
          "dirVec": {
            "x": 0.2973,
            "y": 0.3873,
            "z": -0.6389
          }
        }
      ],
      "lstSymAPs": [],
      "mol": {
        "atoms": [
          {
            "elSymbol": "C",
            "p3d": {
              "x": 1.6995,
              "y": 0.5593,
              "z": -1.2083
            }
          },
          {
            "elSymbol": "C",
            "p3d": {
              "x": 4.2563,
              "y": 0.8754,
              "z": -2.2592
            }
          },
          {
            "elSymbol": "C",
            "p3d": {
              "x": 2.3334,
              "y": 1.79,
              "z": -1.1338
            }
          },
          {
            "elSymbol": "C",
            "p3d": {
              "x": 2.3422,
              "y": -0.5107,
              "z": -1.8125
            }
          },
          {
            "elSymbol": "C",
            "p3d": {
              "x": 3.612,
              "y": -0.3527,
              "z": -2.3321
            }
          },
          {
            "elSymbol": "C",
            "p3d": {
              "x": 3.6062,
              "y": 1.9513,
              "z": -1.6526
            }
          },
          {
            "elSymbol": "H",
            "p3d": {
              "x": 1.833,
              "y": 2.6461,
              "z": -0.6488
            }
          },
          {
            "elSymbol": "H",
            "p3d": {
              "x": 1.8361,
              "y": -1.4773,
              "z": -1.887
            }
          },
          {
            "elSymbol": "H",
            "p3d": {
              "x": 4.115,
              "y": -1.2043,
              "z": -2.8152
            }
          },
          {
            "elSymbol": "H",
            "p3d": {
              "x": 4.1097,
              "y": 2.9214,
              "z": -1.5842
            }
          },
          {
            "elSymbol": "H",
            "p3d": {
              "x": 5.2498,
              "y": 0.9926,
              "z": -2.665
            }
          }
        ],
        "bonds": [
          {
            "atomIds": [
              0,
              3
            ],
            "bo": "SINGLE"
          },
          {
            "atomIds": [
              3,
              4
            ],
            "bo": "DOUBLE"
          },
          {
            "atomIds": [
              1,
              4
            ],
            "bo": "SINGLE"
          },
          {
            "atomIds": [
              1,
              5
            ],
            "bo": "DOUBLE"
          },
          {
            "atomIds": [
              2,
              5
            ],
            "bo": "SINGLE"
          },
          {
            "atomIds": [
              0,
              2
            ],
            "bo": "DOUBLE"
          },
          {
            "atomIds": [
              4,
              8
            ],
            "bo": "SINGLE"
          },
          {
            "atomIds": [
              5,
              9
            ],
            "bo": "SINGLE"
          },
          {
            "atomIds": [
              1,
              10
            ],
            "bo": "SINGLE"
          },
          {
            "atomIds": [
              2,
              6
            ],
            "bo": "SINGLE"
          },
          {
            "atomIds": [
              3,
              7
            ],
            "bo": "SINGLE"
          }
        ]
      },
      "vertexId": 117872,
      "buildingBlockId": 35,
      "buildingBlockType": "FRAGMENT",
      "isRCV": false,
      "properties": {
        "ATTACHMENT_POINTS": "1#SubArS:1:SINGLE:0.2973%0.3873%-0.6389 "
      },
      "uniquefyingPropertyKeys": [],
      "allowedMutationTypes": [
        "DELETE",
        "EXTEND",
        "CHANGEBRANCH",
        "CHANGELINK",
        "ADDLINK",
        "DELETELINK",
        "DELETECHAIN"
      ],
      "vertexType": "MolecularFragment"
    },
    {
      "lstAPs": [
        {
          "id": 155272,
          "atomPositionNumber": 0,
          "atomPositionNumberInMol": 26,
          "apClass": {
            "rule": "LImidazolylideneSubCS",
            "subClass": 1,
            "bndTyp": "SINGLE"
          },
          "dirVec": {
            "x": 5.5071,
            "y": 2.2827,
            "z": 3.7546
          }
        }
      ],
      "lstSymAPs": [],
      "mol": {
        "atoms": [
          {
            "elSymbol": "Cl",
            "p3d": {
              "x": 6.5936,
              "y": 1.2536,
              "z": 4.5047
            }
          }
        ],
        "bonds": []
      },
      "vertexId": 117880,
      "buildingBlockId": 20,
      "buildingBlockType": "FRAGMENT",
      "isRCV": false,
      "properties": {
        "ATTACHMENT_POINTS": "1#LImidazolylideneSubCS:1:SINGLE:5.5071%2.2827%3.7546 "
      },
      "uniquefyingPropertyKeys": [],
      "allowedMutationTypes": [
        "DELETE",
        "EXTEND",
        "CHANGEBRANCH",
        "CHANGELINK",
        "ADDLINK",
        "DELETELINK",
        "DELETECHAIN"
      ],
      "vertexType": "MolecularFragment"
    },
    {
      "lstAPs": [
        {
          "id": 155273,
          "atomPositionNumber": 0,
          "atomPositionNumberInMol": 27,
          "apClass": {
            "rule": "SubArS",
            "subClass": 1,
            "bndTyp": "SINGLE"
          },
          "dirVec": {
            "x": 0.2973,
            "y": 0.3873,
            "z": -0.6389
          }
        }
      ],
      "lstSymAPs": [],
      "mol": {
        "atoms": [
          {
            "elSymbol": "C",
            "p3d": {
              "x": 1.6995,
              "y": 0.5593,
              "z": -1.2083
            }
          },
          {
            "elSymbol": "C",
            "p3d": {
              "x": 4.2563,
              "y": 0.8754,
              "z": -2.2592
            }
          },
          {
            "elSymbol": "C",
            "p3d": {
              "x": 2.3334,
              "y": 1.79,
              "z": -1.1338
            }
          },
          {
            "elSymbol": "C",
            "p3d": {
              "x": 2.3422,
              "y": -0.5107,
              "z": -1.8125
            }
          },
          {
            "elSymbol": "C",
            "p3d": {
              "x": 3.612,
              "y": -0.3527,
              "z": -2.3321
            }
          },
          {
            "elSymbol": "C",
            "p3d": {
              "x": 3.6062,
              "y": 1.9513,
              "z": -1.6526
            }
          },
          {
            "elSymbol": "H",
            "p3d": {
              "x": 1.833,
              "y": 2.6461,
              "z": -0.6488
            }
          },
          {
            "elSymbol": "H",
            "p3d": {
              "x": 1.8361,
              "y": -1.4773,
              "z": -1.887
            }
          },
          {
            "elSymbol": "H",
            "p3d": {
              "x": 4.115,
              "y": -1.2043,
              "z": -2.8152
            }
          },
          {
            "elSymbol": "H",
            "p3d": {
              "x": 4.1097,
              "y": 2.9214,
              "z": -1.5842
            }
          },
          {
            "elSymbol": "H",
            "p3d": {
              "x": 5.2498,
              "y": 0.9926,
              "z": -2.665
            }
          }
        ],
        "bonds": [
          {
            "atomIds": [
              0,
              3
            ],
            "bo": "SINGLE"
          },
          {
            "atomIds": [
              3,
              4
            ],
            "bo": "DOUBLE"
          },
          {
            "atomIds": [
              1,
              4
            ],
            "bo": "SINGLE"
          },
          {
            "atomIds": [
              1,
              5
            ],
            "bo": "DOUBLE"
          },
          {
            "atomIds": [
              2,
              5
            ],
            "bo": "SINGLE"
          },
          {
            "atomIds": [
              0,
              2
            ],
            "bo": "DOUBLE"
          },
          {
            "atomIds": [
              4,
              8
            ],
            "bo": "SINGLE"
          },
          {
            "atomIds": [
              5,
              9
            ],
            "bo": "SINGLE"
          },
          {
            "atomIds": [
              1,
              10
            ],
            "bo": "SINGLE"
          },
          {
            "atomIds": [
              2,
              6
            ],
            "bo": "SINGLE"
          },
          {
            "atomIds": [
              3,
              7
            ],
            "bo": "SINGLE"
          }
        ]
      },
      "vertexId": 118353,
      "buildingBlockId": 35,
      "buildingBlockType": "FRAGMENT",
      "isRCV": false,
      "properties": {
        "ATTACHMENT_POINTS": "1#SubArS:1:SINGLE:0.2973%0.3873%-0.6389 "
      },
      "uniquefyingPropertyKeys": [],
      "allowedMutationTypes": [
        "DELETE",
        "EXTEND",
        "CHANGEBRANCH",
        "CHANGELINK",
        "ADDLINK",
        "DELETELINK",
        "DELETECHAIN"
      ],
      "vertexType": "MolecularFragment"
    },
    {
      "lstAPs": [
        {
          "id": 155274,
          "atomPositionNumber": 0,
          "atomPositionNumberInMol": 38,
          "apClass": {
            "rule": "LImidazolylideneSubCS",
            "subClass": 1,
            "bndTyp": "SINGLE"
          },
          "dirVec": {
            "x": 5.5071,
            "y": 2.2827,
            "z": 3.7546
          }
        }
      ],
      "lstSymAPs": [],
      "mol": {
        "atoms": [
          {
            "elSymbol": "Cl",
            "p3d": {
              "x": 6.5936,
              "y": 1.2536,
              "z": 4.5047
            }
          }
        ],
        "bonds": []
      },
      "vertexId": 118354,
      "buildingBlockId": 20,
      "buildingBlockType": "FRAGMENT",
      "isRCV": false,
      "properties": {
        "ATTACHMENT_POINTS": "1#LImidazolylideneSubCS:1:SINGLE:5.5071%2.2827%3.7546 "
      },
      "uniquefyingPropertyKeys": [],
      "allowedMutationTypes": [
        "DELETE",
        "EXTEND",
        "CHANGEBRANCH",
        "CHANGELINK",
        "ADDLINK",
        "DELETELINK",
        "DELETECHAIN"
      ],
      "vertexType": "MolecularFragment"
    }
  ],
  "gEdges": [
    {
      "srcAPID": 155219,
      "trgAPID": 155222,
      "bondType": "SINGLE"
    },
    {
      "srcAPID": 155221,
      "trgAPID": 155223,
      "bondType": "SINGLE"
    },
    {
      "srcAPID": 155220,
      "trgAPID": 155228,
      "bondType": "SINGLE"
    },
    {
      "srcAPID": 155224,
      "trgAPID": 155271,
      "bondType": "SINGLE"
    },
    {
      "srcAPID": 155225,
      "trgAPID": 155272,
      "bondType": "SINGLE"
    },
    {
      "srcAPID": 155227,
      "trgAPID": 155273,
      "bondType": "SINGLE"
    },
    {
      "srcAPID": 155226,
      "trgAPID": 155274,
      "bondType": "SINGLE"
    }
  ],
  "gRings": [],
  "symVertices": [
    {
      "symIds": [
        117872,
        118353
      ]
    },
    {
      "symIds": [
        117880,
        118354
      ]
    }
  ]
}

> <SMILES>
[Pt](C#O)(OC([H])([H])[H])([C]1N(C(=C(N1C=2C(=C(C(=C(C2[H])[H])[H])[H])[H])Cl)Cl)C=3C(=C(C(=C(C3[H])[H])[H])[H])[H])Cl

$$$$
