M00009224
  CDK     04222212003D

 24 24  0  0  0  0  0  0  0  0999 V2000
   -2.2174   -0.0013   -0.4002 Pt  0  0  0  0  0  0  0  0  0  0  0  0
   -4.1687   -0.0279   -0.4508 C   0  0  0  0  0  0  0  0  0  0  0  0
   -5.3091   -0.0538   -0.4840 O   0  0  0  0  0  0  0  0  0  0  0  0
   -2.2350    1.9872   -0.2389 C   0  0  0  0  0  0  0  0  0  0  0  0
   -2.2185    3.1386   -0.1462 N   0  0  0  0  0  0  0  0  0  0  0  0
    0.0523   -0.0429   -0.3823 P   0  0  0  0  0  0  0  0  0  0  0  0
    0.8026   -1.2960    0.8047 C   0  0  0  0  0  0  0  0  0  0  0  0
    0.0246   -1.8893    1.3265 H   0  0  0  0  0  0  0  0  0  0  0  0
    1.4251   -2.0367    0.2681 H   0  0  0  0  0  0  0  0  0  0  0  0
    1.6193   -0.4309    1.7648 C   0  0  0  0  0  0  0  0  0  0  0  0
    2.5052   -0.9912    2.1258 H   0  0  0  0  0  0  0  0  0  0  0  0
    1.0280   -0.2100    2.6793 H   0  0  0  0  0  0  0  0  0  0  0  0
    2.0698    0.8903    1.1059 C   0  0  0  0  0  0  0  0  0  0  0  0
    2.9918    0.7242    0.5112 H   0  0  0  0  0  0  0  0  0  0  0  0
    2.3637    1.6170    1.8913 H   0  0  0  0  0  0  0  0  0  0  0  0
    0.9634    1.4814    0.2333 C   0  0  0  0  0  0  0  0  0  0  0  0
    1.3497    2.1094   -0.5887 H   0  0  0  0  0  0  0  0  0  0  0  0
    0.2849    2.1439    0.8138 H   0  0  0  0  0  0  0  0  0  0  0  0
    0.6275   -0.4313   -2.1136 C   0  0  0  0  0  0  0  0  0  0  0  0
    0.2673    0.3184   -2.8359 H   0  0  0  0  0  0  0  0  0  0  0  0
    1.7222   -0.4682   -2.1920 H   0  0  0  0  0  0  0  0  0  0  0  0
    0.2383   -1.4080   -2.4516 H   0  0  0  0  0  0  0  0  0  0  0  0
   -2.1340   -1.9874   -0.5697 C   0  0  0  0  0  0  0  0  0  0  0  0
   -2.0528   -3.1355   -0.6707 N   0  0  0  0  0  0  0  0  0  0  0  0
  2  3  3  0  0  0  0
  1  2  1  0  0  0  0
  4  5  3  0  0  0  0
  1  4  1  0  0  0  0
  7  6  1  0  0  0  0
  8  7  1  0  0  0  0
  9  7  1  0  0  0  0
 10  7  1  0  0  0  0
 11 10  1  0  0  0  0
 12 10  1  0  0  0  0
 13 10  1  0  0  0  0
 13 16  1  0  0  0  0
 14 13  1  0  0  0  0
 15 13  1  0  0  0  0
 16  6  1  0  0  0  0
 17 16  1  0  0  0  0
 18 16  1  0  0  0  0
  1  6  1  0  0  0  0
 19 20  1  0  0  0  0
 19 21  1  0  0  0  0
 19 22  1  0  0  0  0
  6 19  1  0  0  0  0
 23 24  3  0  0  0  0
  1 23  1  0  0  0  0
M  END
> <PM6_ENERGY>
19.126

> <UID>
OOLCIBXGXXSVMK-GYVSMHIWNA-N

> <FITNESS>
1.14118

> <GCODE>
10199

> <GraphENC>
10199 72_1_0,81_66_1,104_42_1,87_66_1,207689_31_1, 72_0_81_0_SINGLE_Xlig:0_Xlig:1,72_2_104_1_SINGLE_scaff:0_MPhosphine:1,72_1_87_0_SINGLE_Xlig:0_Xlig:1,104_0_207689_0_SINGLE_LPhosphineSubM:0_SubRS:1, 

> <GraphJson>
{
  "graphId": 10199,
  "gVertices": [
    {
      "lstAPs": [
        {
          "id": 271327,
          "atomPositionNumber": 0,
          "atomPositionNumberInMol": 0,
          "apClass": {
            "rule": "Xlig",
            "subClass": 0,
            "bndTyp": "SINGLE"
          },
          "dirVec": {
            "x": -2.3339,
            "y": -0.0087,
            "z": 0.8172
          }
        },
        {
          "id": 271328,
          "atomPositionNumber": 0,
          "atomPositionNumberInMol": 0,
          "apClass": {
            "rule": "Xlig",
            "subClass": 0,
            "bndTyp": "SINGLE"
          },
          "dirVec": {
            "x": 2.336,
            "y": -5.0E-4,
            "z": 0.829
          }
        },
        {
          "id": 271329,
          "atomPositionNumber": 0,
          "atomPositionNumberInMol": 0,
          "apClass": {
            "rule": "scaff",
            "subClass": 0,
            "bndTyp": "SINGLE"
          },
          "dirVec": {
            "x": -0.0095,
            "y": 0.0046,
            "z": -1.7113
          }
        }
      ],
      "lstSymAPs": [
        {
          "symIds": [
            0,
            1
          ]
        }
      ],
      "mol": {
        "atoms": [
          {
            "elSymbol": "Pt",
            "p3d": {
              "x": -0.0098,
              "y": 0.0049,
              "z": 0.6289
            }
          },
          {
            "elSymbol": "C",
            "p3d": {
              "x": -6.0E-4,
              "y": 0.0016,
              "z": 2.5609
            }
          },
          {
            "elSymbol": "O",
            "p3d": {
              "x": 0.0025,
              "y": -0.0041,
              "z": 3.6974
            }
          },
          {
            "elSymbol": "Du",
            "p3d": {
              "x": -0.007,
              "y": 1.0013,
              "z": 0.6372
            }
          },
          {
            "elSymbol": "Du",
            "p3d": {
              "x": -0.0014,
              "y": 0.9902,
              "z": 2.5698
            }
          }
        ],
        "bonds": [
          {
            "atomIds": [
              1,
              2
            ],
            "bo": "TRIPLE"
          },
          {
            "atomIds": [
              0,
              1
            ],
            "bo": "SINGLE"
          },
          {
            "atomIds": [
              3,
              0
            ],
            "bo": "SINGLE"
          },
          {
            "atomIds": [
              4,
              1
            ],
            "bo": "SINGLE"
          }
        ]
      },
      "vertexId": 72,
      "buildingBlockId": 0,
      "buildingBlockType": "SCAFFOLD",
      "isRCV": false,
      "properties": {
        "ATTACHMENT_POINTS": "1#Xlig:0:SINGLE:-2.3339%-0.0087%0.8172,Xlig:0:SINGLE:2.3360%-0.0005%0.8290,scaff:0:SINGLE:-0.0095%0.0046%-1.7113 "
      },
      "uniquefyingPropertyKeys": [],
      "allowedMutationTypes": [
        "DELETE",
        "EXTEND",
        "CHANGEBRANCH",
        "CHANGELINK",
        "ADDLINK",
        "DELETELINK",
        "DELETECHAIN"
      ],
      "vertexType": "MolecularFragment"
    },
    {
      "lstAPs": [
        {
          "id": 271330,
          "atomPositionNumber": 0,
          "atomPositionNumberInMol": 5,
          "apClass": {
            "rule": "Xlig",
            "subClass": 1,
            "bndTyp": "SINGLE"
          },
          "dirVec": {
            "x": 0.0192,
            "y": -0.0048,
            "z": -0.5645
          }
        }
      ],
      "lstSymAPs": [],
      "mol": {
        "atoms": [
          {
            "elSymbol": "C",
            "p3d": {
              "x": -1.967,
              "y": -0.0075,
              "z": -0.4937
            }
          },
          {
            "elSymbol": "N",
            "p3d": {
              "x": -3.1263,
              "y": -0.0054,
              "z": -0.4354
            }
          },
          {
            "elSymbol": "Du",
            "p3d": {
              "x": -1.9744,
              "y": 0.9926,
              "z": -0.5036
            }
          }
        ],
        "bonds": [
          {
            "atomIds": [
              0,
              1
            ],
            "bo": "TRIPLE"
          },
          {
            "atomIds": [
              2,
              0
            ],
            "bo": "SINGLE"
          }
        ]
      },
      "vertexId": 81,
      "buildingBlockId": 65,
      "buildingBlockType": "FRAGMENT",
      "isRCV": false,
      "properties": {
        "ATTACHMENT_POINTS": "1#Xlig:1:SINGLE:0.0192%-0.0048%-0.5645 "
      },
      "uniquefyingPropertyKeys": [],
      "allowedMutationTypes": [
        "DELETE",
        "EXTEND",
        "CHANGEBRANCH",
        "CHANGELINK",
        "ADDLINK",
        "DELETELINK",
        "DELETECHAIN"
      ],
      "vertexType": "MolecularFragment"
    },
    {
      "lstAPs": [
        {
          "id": 271334,
          "atomPositionNumber": 0,
          "atomPositionNumberInMol": 8,
          "apClass": {
            "rule": "LPhosphineSubM",
            "subClass": 0,
            "bndTyp": "SINGLE"
          },
          "dirVec": {
            "x": 2.723,
            "y": 1.7542,
            "z": 13.2677
          }
        },
        {
          "id": 271335,
          "atomPositionNumber": 0,
          "atomPositionNumberInMol": 8,
          "apClass": {
            "rule": "MPhosphine",
            "subClass": 1,
            "bndTyp": "SINGLE"
          },
          "dirVec": {
            "x": 4.8307,
            "y": -0.2673,
            "z": 11.5812
          }
        }
      ],
      "lstSymAPs": [],
      "mol": {
        "atoms": [
          {
            "elSymbol": "P",
            "p3d": {
              "x": 3.2259,
              "y": 1.2767,
              "z": 11.5745
            }
          },
          {
            "elSymbol": "C",
            "p3d": {
              "x": 1.6598,
              "y": 0.7995,
              "z": 10.6875
            }
          },
          {
            "elSymbol": "H",
            "p3d": {
              "x": 1.6974,
              "y": -0.248,
              "z": 10.3885
            }
          },
          {
            "elSymbol": "H",
            "p3d": {
              "x": 0.7981,
              "y": 0.9391,
              "z": 11.3443
            }
          },
          {
            "elSymbol": "C",
            "p3d": {
              "x": 1.5701,
              "y": 1.7203,
              "z": 9.4939
            }
          },
          {
            "elSymbol": "H",
            "p3d": {
              "x": 0.5288,
              "y": 1.8359,
              "z": 9.1795
            }
          },
          {
            "elSymbol": "H",
            "p3d": {
              "x": 2.1382,
              "y": 1.3052,
              "z": 8.655
            }
          },
          {
            "elSymbol": "C",
            "p3d": {
              "x": 2.1438,
              "y": 3.0759,
              "z": 9.8936
            }
          },
          {
            "elSymbol": "H",
            "p3d": {
              "x": 1.4578,
              "y": 3.5682,
              "z": 10.5909
            }
          },
          {
            "elSymbol": "H",
            "p3d": {
              "x": 2.2815,
              "y": 3.6992,
              "z": 9.0137
            }
          },
          {
            "elSymbol": "C",
            "p3d": {
              "x": 3.4838,
              "y": 2.7861,
              "z": 10.5731
            }
          },
          {
            "elSymbol": "H",
            "p3d": {
              "x": 3.7886,
              "y": 3.6232,
              "z": 11.214
            }
          },
          {
            "elSymbol": "H",
            "p3d": {
              "x": 4.2729,
              "y": 2.6329,
              "z": 9.835
            }
          }
        ],
        "bonds": [
          {
            "atomIds": [
              1,
              0
            ],
            "bo": "SINGLE"
          },
          {
            "atomIds": [
              2,
              1
            ],
            "bo": "SINGLE"
          },
          {
            "atomIds": [
              3,
              1
            ],
            "bo": "SINGLE"
          },
          {
            "atomIds": [
              4,
              1
            ],
            "bo": "SINGLE"
          },
          {
            "atomIds": [
              5,
              4
            ],
            "bo": "SINGLE"
          },
          {
            "atomIds": [
              6,
              4
            ],
            "bo": "SINGLE"
          },
          {
            "atomIds": [
              7,
              4
            ],
            "bo": "SINGLE"
          },
          {
            "atomIds": [
              7,
              10
            ],
            "bo": "SINGLE"
          },
          {
            "atomIds": [
              8,
              7
            ],
            "bo": "SINGLE"
          },
          {
            "atomIds": [
              9,
              7
            ],
            "bo": "SINGLE"
          },
          {
            "atomIds": [
              10,
              0
            ],
            "bo": "SINGLE"
          },
          {
            "atomIds": [
              11,
              10
            ],
            "bo": "SINGLE"
          },
          {
            "atomIds": [
              12,
              10
            ],
            "bo": "SINGLE"
          }
        ]
      },
      "vertexId": 104,
      "buildingBlockId": 41,
      "buildingBlockType": "FRAGMENT",
      "isRCV": false,
      "properties": {
        "ATTACHMENT_POINTS": "1#LPhosphineSubM:0:SINGLE:2.7230%1.7542%13.2677,MPhosphine:1:SINGLE:4.8307%-0.2673%11.5812 "
      },
      "uniquefyingPropertyKeys": [],
      "allowedMutationTypes": [
        "DELETE",
        "EXTEND",
        "CHANGEBRANCH",
        "CHANGELINK",
        "ADDLINK",
        "DELETELINK",
        "DELETECHAIN"
      ],
      "vertexType": "MolecularFragment"
    },
    {
      "lstAPs": [
        {
          "id": 271337,
          "atomPositionNumber": 0,
          "atomPositionNumberInMol": 25,
          "apClass": {
            "rule": "Xlig",
            "subClass": 1,
            "bndTyp": "SINGLE"
          },
          "dirVec": {
            "x": 0.0192,
            "y": -0.0048,
            "z": -0.5645
          }
        }
      ],
      "lstSymAPs": [],
      "mol": {
        "atoms": [
          {
            "elSymbol": "C",
            "p3d": {
              "x": -1.967,
              "y": -0.0075,
              "z": -0.4937
            }
          },
          {
            "elSymbol": "N",
            "p3d": {
              "x": -3.1263,
              "y": -0.0054,
              "z": -0.4354
            }
          },
          {
            "elSymbol": "Du",
            "p3d": {
              "x": -1.9744,
              "y": 0.9926,
              "z": -0.5036
            }
          }
        ],
        "bonds": [
          {
            "atomIds": [
              0,
              1
            ],
            "bo": "TRIPLE"
          },
          {
            "atomIds": [
              2,
              0
            ],
            "bo": "SINGLE"
          }
        ]
      },
      "vertexId": 87,
      "buildingBlockId": 65,
      "buildingBlockType": "FRAGMENT",
      "isRCV": false,
      "properties": {
        "ATTACHMENT_POINTS": "1#Xlig:1:SINGLE:0.0192%-0.0048%-0.5645 "
      },
      "uniquefyingPropertyKeys": [],
      "allowedMutationTypes": [
        "DELETE",
        "EXTEND",
        "CHANGEBRANCH",
        "CHANGELINK",
        "ADDLINK",
        "DELETELINK",
        "DELETECHAIN"
      ],
      "vertexType": "MolecularFragment"
    },
    {
      "lstAPs": [
        {
          "id": 271358,
          "atomPositionNumber": 0,
          "atomPositionNumberInMol": 21,
          "apClass": {
            "rule": "SubRS",
            "subClass": 1,
            "bndTyp": "SINGLE"
          },
          "dirVec": {
            "x": 0.2865,
            "y": 0.3959,
            "z": -0.6387
          }
        }
      ],
      "lstSymAPs": [],
      "mol": {
        "atoms": [
          {
            "elSymbol": "C",
            "p3d": {
              "x": 0.3969,
              "y": -0.0496,
              "z": 0.8235
            }
          },
          {
            "elSymbol": "H",
            "p3d": {
              "x": -0.6146,
              "y": -0.163,
              "z": 1.2402
            }
          },
          {
            "elSymbol": "H",
            "p3d": {
              "x": 0.9335,
              "y": -0.9979,
              "z": 0.8998
            }
          },
          {
            "elSymbol": "H",
            "p3d": {
              "x": 0.9252,
              "y": 0.7237,
              "z": 1.3995
            }
          }
        ],
        "bonds": [
          {
            "atomIds": [
              0,
              1
            ],
            "bo": "SINGLE"
          },
          {
            "atomIds": [
              0,
              2
            ],
            "bo": "SINGLE"
          },
          {
            "atomIds": [
              0,
              3
            ],
            "bo": "SINGLE"
          }
        ]
      },
      "vertexId": 207689,
      "buildingBlockId": 30,
      "buildingBlockType": "FRAGMENT",
      "isRCV": false,
      "properties": {
        "ATTACHMENT_POINTS": "1#SubRS:1:SINGLE:0.2865%0.3959%-0.6387 "
      },
      "uniquefyingPropertyKeys": [],
      "allowedMutationTypes": [
        "DELETE",
        "EXTEND",
        "CHANGEBRANCH",
        "CHANGELINK",
        "ADDLINK",
        "DELETELINK",
        "DELETECHAIN"
      ],
      "vertexType": "MolecularFragment"
    }
  ],
  "gEdges": [
    {
      "srcAPID": 271327,
      "trgAPID": 271330,
      "bondType": "SINGLE"
    },
    {
      "srcAPID": 271329,
      "trgAPID": 271335,
      "bondType": "SINGLE"
    },
    {
      "srcAPID": 271328,
      "trgAPID": 271337,
      "bondType": "SINGLE"
    },
    {
      "srcAPID": 271334,
      "trgAPID": 271358,
      "bondType": "SINGLE"
    }
  ],
  "gRings": [],
  "symVertices": []
}

> <SMILES>
[Pt](C#O)(C#N)([P]1(C([H])([H])C([H])([H])C(C1([H])[H])([H])[H])C([H])([H])[H])C#N

$$$$
