M00005944
  CDK     04222210503D

 42 44  0  0  0  0  0  0  0  0999 V2000
    0.3423   -3.3979    0.1919 Pt  0  0  0  0  0  0  0  0  0  0  0  0
    0.1281   -5.3179    0.4519 C   0  0  0  0  0  0  0  0  0  0  0  0
   -0.0137   -6.4420    0.5955 O   0  0  0  0  0  0  0  0  0  0  0  0
   -1.4719   -2.7796   -0.5561 O   0  0  0  0  0  0  0  0  0  0  0  0
   -2.5247   -3.0931    0.3369 C   0  0  0  0  0  0  0  0  0  0  0  0
   -3.4204   -2.6135   -0.0806 H   0  0  0  0  0  0  0  0  0  0  0  0
   -2.3074   -2.6872    1.3343 H   0  0  0  0  0  0  0  0  0  0  0  0
   -2.6544   -4.1817    0.3703 H   0  0  0  0  0  0  0  0  0  0  0  0
    0.2907   -1.1678   -0.2099 P   0  0  0  0  0  0  0  0  0  0  0  0
    1.6385   -0.3212    0.3290 O   0  0  0  0  0  0  0  0  0  0  0  0
   -0.9761   -0.4963    0.6597 O   0  0  0  0  0  0  0  0  0  0  0  0
    1.4921    1.1195    0.3783 C   0  0  0  0  0  0  0  0  0  0  0  0
   -0.9997    0.9546    0.6549 C   0  0  0  0  0  0  0  0  0  0  0  0
    0.2915    1.5551    1.2461 C   0  0  0  0  0  0  0  0  0  0  0  0
    0.2010    3.1014    1.2642 C   0  0  0  0  0  0  0  0  0  0  0  0
    0.5019    1.1232    2.7191 C   0  0  0  0  0  0  0  0  0  0  0  0
    0.8568    2.3835    3.5259 C   0  0  0  0  0  0  0  0  0  0  0  0
    0.9452    3.5537    2.5305 C   0  0  0  0  0  0  0  0  0  0  0  0
    2.4573    1.4141    0.8443 H   0  0  0  0  0  0  0  0  0  0  0  0
   -1.2216    1.3242   -0.3634 H   0  0  0  0  0  0  0  0  0  0  0  0
   -0.8535    3.4300    1.3086 H   0  0  0  0  0  0  0  0  0  0  0  0
   -0.4030    0.6349    3.1223 H   0  0  0  0  0  0  0  0  0  0  0  0
    1.8072    2.2529    4.0712 H   0  0  0  0  0  0  0  0  0  0  0  0
    1.9997    3.7885    2.3000 H   0  0  0  0  0  0  0  0  0  0  0  0
    1.4516    1.5274   -0.6478 H   0  0  0  0  0  0  0  0  0  0  0  0
   -1.8807    1.1486    1.3031 H   0  0  0  0  0  0  0  0  0  0  0  0
    0.6231    3.5602    0.3560 H   0  0  0  0  0  0  0  0  0  0  0  0
    1.2987    0.3582    2.7961 H   0  0  0  0  0  0  0  0  0  0  0  0
    0.0886    2.5807    4.2941 H   0  0  0  0  0  0  0  0  0  0  0  0
    0.5081    4.4757    2.9480 H   0  0  0  0  0  0  0  0  0  0  0  0
    0.1028   -0.7096   -1.9842 C   0  0  0  0  0  0  0  0  0  0  0  0
   -0.1854   -0.0646   -4.6718 C   0  0  0  0  0  0  0  0  0  0  0  0
   -1.1436   -0.8609   -2.5921 C   0  0  0  0  0  0  0  0  0  0  0  0
    1.2165   -0.2700   -2.7050 C   0  0  0  0  0  0  0  0  0  0  0  0
    1.0662    0.0597   -4.0550 C   0  0  0  0  0  0  0  0  0  0  0  0
   -1.2859   -0.5264   -3.9455 C   0  0  0  0  0  0  0  0  0  0  0  0
   -2.0060   -1.2599   -2.0378 H   0  0  0  0  0  0  0  0  0  0  0  0
    2.2053   -0.1874   -2.2436 H   0  0  0  0  0  0  0  0  0  0  0  0
    1.9241    0.4031   -4.6307 H   0  0  0  0  0  0  0  0  0  0  0  0
   -2.2535   -0.6402   -4.4322 H   0  0  0  0  0  0  0  0  0  0  0  0
   -0.2974    0.1918   -5.7257 H   0  0  0  0  0  0  0  0  0  0  0  0
    2.4614   -3.9237    0.9491 Cl  0  0  0  0  0  0  0  0  0  0  0  0
  2  3  3  0  0  0  0
  1  2  1  0  0  0  0
  5  6  1  0  0  0  0
  5  7  1  0  0  0  0
  5  8  1  0  0  0  0
  4  5  1  0  0  0  0
  1  4  1  0  0  0  0
 10  9  1  0  0  0  0
 11  9  1  0  0  0  0
 12 10  1  0  0  0  0
 13 11  1  0  0  0  0
 13 14  1  0  0  0  0
 14 12  1  0  0  0  0
 15 14  1  0  0  0  0
 16 14  1  0  0  0  0
 17 16  1  0  0  0  0
 17 18  1  0  0  0  0
 18 15  1  0  0  0  0
 19 12  1  0  0  0  0
 20 13  1  0  0  0  0
 21 15  1  0  0  0  0
 22 16  1  0  0  0  0
 23 17  1  0  0  0  0
 24 18  1  0  0  0  0
 25 12  1  0  0  0  0
 26 13  1  0  0  0  0
 27 15  1  0  0  0  0
 28 16  1  0  0  0  0
 29 17  1  0  0  0  0
 30 18  1  0  0  0  0
  1  9  1  0  0  0  0
 31 34  1  0  0  0  0
 34 35  2  0  0  0  0
 32 35  1  0  0  0  0
 32 36  2  0  0  0  0
 33 36  1  0  0  0  0
 31 33  2  0  0  0  0
 35 39  1  0  0  0  0
 36 40  1  0  0  0  0
 32 41  1  0  0  0  0
 33 37  1  0  0  0  0
 34 38  1  0  0  0  0
  9 31  1  0  0  0  0
  1 42  1  0  0  0  0
M  END
> <PM6_ENERGY>
-692.595

> <UID>
DWTZKQFLANBCGR-CQRPTHRRNA-M

> <FITNESS>
1.14207

> <GCODE>
6765

> <GraphENC>
6765 72_1_0,80_65_1,120_60_1,88_67_1,134549_36_1, 72_0_80_0_SINGLE_Xlig:0_Xlig:1,72_2_120_1_SINGLE_scaff:0_MPhosphonite:1,72_1_88_0_SINGLE_Xlig:0_Xlig:1,120_0_134549_0_SINGLE_LPhosphoniteSubR:0_SubArS:1, 

> <GraphJson>
{
  "graphId": 6765,
  "gVertices": [
    {
      "lstAPs": [
        {
          "id": 176374,
          "atomPositionNumber": 0,
          "atomPositionNumberInMol": 0,
          "apClass": {
            "rule": "Xlig",
            "subClass": 0,
            "bndTyp": "SINGLE"
          },
          "dirVec": {
            "x": -2.3339,
            "y": -0.0087,
            "z": 0.8172
          }
        },
        {
          "id": 176375,
          "atomPositionNumber": 0,
          "atomPositionNumberInMol": 0,
          "apClass": {
            "rule": "Xlig",
            "subClass": 0,
            "bndTyp": "SINGLE"
          },
          "dirVec": {
            "x": 2.336,
            "y": -5.0E-4,
            "z": 0.829
          }
        },
        {
          "id": 176376,
          "atomPositionNumber": 0,
          "atomPositionNumberInMol": 0,
          "apClass": {
            "rule": "scaff",
            "subClass": 0,
            "bndTyp": "SINGLE"
          },
          "dirVec": {
            "x": -0.0095,
            "y": 0.0046,
            "z": -1.7113
          }
        }
      ],
      "lstSymAPs": [
        {
          "symIds": [
            0,
            1
          ]
        }
      ],
      "mol": {
        "atoms": [
          {
            "elSymbol": "Pt",
            "p3d": {
              "x": -0.0098,
              "y": 0.0049,
              "z": 0.6289
            }
          },
          {
            "elSymbol": "C",
            "p3d": {
              "x": -6.0E-4,
              "y": 0.0016,
              "z": 2.5609
            }
          },
          {
            "elSymbol": "O",
            "p3d": {
              "x": 0.0025,
              "y": -0.0041,
              "z": 3.6974
            }
          },
          {
            "elSymbol": "Du",
            "p3d": {
              "x": -0.007,
              "y": 1.0013,
              "z": 0.6372
            }
          },
          {
            "elSymbol": "Du",
            "p3d": {
              "x": -0.0014,
              "y": 0.9902,
              "z": 2.5698
            }
          }
        ],
        "bonds": [
          {
            "atomIds": [
              1,
              2
            ],
            "bo": "TRIPLE"
          },
          {
            "atomIds": [
              0,
              1
            ],
            "bo": "SINGLE"
          },
          {
            "atomIds": [
              3,
              0
            ],
            "bo": "SINGLE"
          },
          {
            "atomIds": [
              4,
              1
            ],
            "bo": "SINGLE"
          }
        ]
      },
      "vertexId": 72,
      "buildingBlockId": 0,
      "buildingBlockType": "SCAFFOLD",
      "isRCV": false,
      "properties": {
        "ATTACHMENT_POINTS": "1#Xlig:0:SINGLE:-2.3339%-0.0087%0.8172,Xlig:0:SINGLE:2.3360%-0.0005%0.8290,scaff:0:SINGLE:-0.0095%0.0046%-1.7113 "
      },
      "uniquefyingPropertyKeys": [],
      "allowedMutationTypes": [
        "DELETE",
        "EXTEND",
        "CHANGEBRANCH",
        "CHANGELINK",
        "ADDLINK",
        "DELETELINK",
        "DELETECHAIN"
      ],
      "vertexType": "MolecularFragment"
    },
    {
      "lstAPs": [
        {
          "id": 176377,
          "atomPositionNumber": 0,
          "atomPositionNumberInMol": 5,
          "apClass": {
            "rule": "Xlig",
            "subClass": 1,
            "bndTyp": "SINGLE"
          },
          "dirVec": {
            "x": -0.1753,
            "y": 0.0948,
            "z": -0.4464
          }
        }
      ],
      "lstSymAPs": [],
      "mol": {
        "atoms": [
          {
            "elSymbol": "O",
            "p3d": {
              "x": -0.3534,
              "y": 2.1044,
              "z": -0.7339
            }
          },
          {
            "elSymbol": "C",
            "p3d": {
              "x": -0.5345,
              "y": 2.7646,
              "z": 0.4801
            }
          },
          {
            "elSymbol": "H",
            "p3d": {
              "x": -0.3728,
              "y": 3.8337,
              "z": 0.2724
            }
          },
          {
            "elSymbol": "H",
            "p3d": {
              "x": 0.1816,
              "y": 2.4161,
              "z": 1.2384
            }
          },
          {
            "elSymbol": "H",
            "p3d": {
              "x": -1.553,
              "y": 2.6149,
              "z": 0.8489
            }
          }
        ],
        "bonds": [
          {
            "atomIds": [
              1,
              2
            ],
            "bo": "SINGLE"
          },
          {
            "atomIds": [
              1,
              3
            ],
            "bo": "SINGLE"
          },
          {
            "atomIds": [
              1,
              4
            ],
            "bo": "SINGLE"
          },
          {
            "atomIds": [
              0,
              1
            ],
            "bo": "SINGLE"
          }
        ]
      },
      "vertexId": 80,
      "buildingBlockId": 64,
      "buildingBlockType": "FRAGMENT",
      "isRCV": false,
      "properties": {
        "ATTACHMENT_POINTS": "1#Xlig:1:SINGLE:-0.1753%0.0948%-0.4464 "
      },
      "uniquefyingPropertyKeys": [],
      "allowedMutationTypes": [
        "DELETE",
        "EXTEND",
        "CHANGEBRANCH",
        "CHANGELINK",
        "ADDLINK",
        "DELETELINK",
        "DELETECHAIN"
      ],
      "vertexType": "MolecularFragment"
    },
    {
      "lstAPs": [
        {
          "id": 176378,
          "atomPositionNumber": 0,
          "atomPositionNumberInMol": 10,
          "apClass": {
            "rule": "LPhosphoniteSubR",
            "subClass": 0,
            "bndTyp": "SINGLE"
          },
          "dirVec": {
            "x": 8.5833,
            "y": -0.8556,
            "z": 13.5393
          }
        },
        {
          "id": 176379,
          "atomPositionNumber": 0,
          "atomPositionNumberInMol": 10,
          "apClass": {
            "rule": "MPhosphonite",
            "subClass": 1,
            "bndTyp": "SINGLE"
          },
          "dirVec": {
            "x": 10.4864,
            "y": 1.7322,
            "z": 12.8008
          }
        }
      ],
      "lstSymAPs": [],
      "mol": {
        "atoms": [
          {
            "elSymbol": "P",
            "p3d": {
              "x": 9.4136,
              "y": 0.5115,
              "z": 14.3923
            }
          },
          {
            "elSymbol": "O",
            "p3d": {
              "x": 8.2442,
              "y": 1.2619,
              "z": 15.1868
            }
          },
          {
            "elSymbol": "O",
            "p3d": {
              "x": 10.2958,
              "y": -0.1433,
              "z": 15.5334
            }
          },
          {
            "elSymbol": "C",
            "p3d": {
              "x": 7.569,
              "y": 0.5127,
              "z": 16.2393
            }
          },
          {
            "elSymbol": "C",
            "p3d": {
              "x": 9.6126,
              "y": -0.8784,
              "z": 16.5841
            }
          },
          {
            "elSymbol": "C",
            "p3d": {
              "x": 8.5724,
              "y": -0.0317,
              "z": 17.272
            }
          },
          {
            "elSymbol": "C",
            "p3d": {
              "x": 7.8304,
              "y": -0.8777,
              "z": 18.3165
            }
          },
          {
            "elSymbol": "C",
            "p3d": {
              "x": 9.196,
              "y": 1.1315,
              "z": 18.0904
            }
          },
          {
            "elSymbol": "C",
            "p3d": {
              "x": 8.5732,
              "y": 1.0297,
              "z": 19.3942
            }
          },
          {
            "elSymbol": "C",
            "p3d": {
              "x": 7.5194,
              "y": 0.0547,
              "z": 19.4381
            }
          },
          {
            "elSymbol": "H",
            "p3d": {
              "x": 6.9817,
              "y": 1.2703,
              "z": 16.7546
            }
          },
          {
            "elSymbol": "H",
            "p3d": {
              "x": 9.0105,
              "y": -1.7019,
              "z": 16.1896
            }
          },
          {
            "elSymbol": "H",
            "p3d": {
              "x": 8.4263,
              "y": -1.7167,
              "z": 18.6441
            }
          },
          {
            "elSymbol": "H",
            "p3d": {
              "x": 10.2549,
              "y": 0.9263,
              "z": 17.976
            }
          },
          {
            "elSymbol": "H",
            "p3d": {
              "x": 8.3046,
              "y": 1.9671,
              "z": 19.8829
            }
          },
          {
            "elSymbol": "H",
            "p3d": {
              "x": 6.5618,
              "y": 0.5532,
              "z": 19.2885
            }
          },
          {
            "elSymbol": "H",
            "p3d": {
              "x": 7.1262,
              "y": -0.3475,
              "z": 15.7389
            }
          },
          {
            "elSymbol": "H",
            "p3d": {
              "x": 10.5271,
              "y": -1.1697,
              "z": 17.0978
            }
          },
          {
            "elSymbol": "H",
            "p3d": {
              "x": 6.9137,
              "y": -1.2746,
              "z": 17.8773
            }
          },
          {
            "elSymbol": "H",
            "p3d": {
              "x": 9.6349,
              "y": 2.045,
              "z": 17.6739
            }
          },
          {
            "elSymbol": "H",
            "p3d": {
              "x": 9.3306,
              "y": 0.6014,
              "z": 20.0507
            }
          },
          {
            "elSymbol": "H",
            "p3d": {
              "x": 7.4379,
              "y": -0.5103,
              "z": 20.3832
            }
          }
        ],
        "bonds": [
          {
            "atomIds": [
              1,
              0
            ],
            "bo": "SINGLE"
          },
          {
            "atomIds": [
              2,
              0
            ],
            "bo": "SINGLE"
          },
          {
            "atomIds": [
              3,
              1
            ],
            "bo": "SINGLE"
          },
          {
            "atomIds": [
              4,
              2
            ],
            "bo": "SINGLE"
          },
          {
            "atomIds": [
              4,
              5
            ],
            "bo": "SINGLE"
          },
          {
            "atomIds": [
              5,
              3
            ],
            "bo": "SINGLE"
          },
          {
            "atomIds": [
              6,
              5
            ],
            "bo": "SINGLE"
          },
          {
            "atomIds": [
              7,
              5
            ],
            "bo": "SINGLE"
          },
          {
            "atomIds": [
              8,
              7
            ],
            "bo": "SINGLE"
          },
          {
            "atomIds": [
              8,
              9
            ],
            "bo": "SINGLE"
          },
          {
            "atomIds": [
              9,
              6
            ],
            "bo": "SINGLE"
          },
          {
            "atomIds": [
              10,
              3
            ],
            "bo": "SINGLE"
          },
          {
            "atomIds": [
              11,
              4
            ],
            "bo": "SINGLE"
          },
          {
            "atomIds": [
              12,
              6
            ],
            "bo": "SINGLE"
          },
          {
            "atomIds": [
              13,
              7
            ],
            "bo": "SINGLE"
          },
          {
            "atomIds": [
              14,
              8
            ],
            "bo": "SINGLE"
          },
          {
            "atomIds": [
              15,
              9
            ],
            "bo": "SINGLE"
          },
          {
            "atomIds": [
              16,
              3
            ],
            "bo": "SINGLE"
          },
          {
            "atomIds": [
              17,
              4
            ],
            "bo": "SINGLE"
          },
          {
            "atomIds": [
              18,
              6
            ],
            "bo": "SINGLE"
          },
          {
            "atomIds": [
              19,
              7
            ],
            "bo": "SINGLE"
          },
          {
            "atomIds": [
              20,
              8
            ],
            "bo": "SINGLE"
          },
          {
            "atomIds": [
              21,
              9
            ],
            "bo": "SINGLE"
          }
        ]
      },
      "vertexId": 120,
      "buildingBlockId": 59,
      "buildingBlockType": "FRAGMENT",
      "isRCV": false,
      "properties": {
        "ATTACHMENT_POINTS": "1#LPhosphoniteSubR:0:SINGLE:8.5833%-0.8556%13.5393,MPhosphonite:1:SINGLE:10.4864%1.7322%12.8008 "
      },
      "uniquefyingPropertyKeys": [],
      "allowedMutationTypes": [
        "DELETE",
        "EXTEND",
        "CHANGEBRANCH",
        "CHANGELINK",
        "ADDLINK",
        "DELETELINK",
        "DELETECHAIN"
      ],
      "vertexType": "MolecularFragment"
    },
    {
      "lstAPs": [
        {
          "id": 176380,
          "atomPositionNumber": 0,
          "atomPositionNumberInMol": 43,
          "apClass": {
            "rule": "Xlig",
            "subClass": 1,
            "bndTyp": "SINGLE"
          },
          "dirVec": {
            "x": -0.0053,
            "y": -0.0027,
            "z": 0.63
          }
        }
      ],
      "lstSymAPs": [],
      "mol": {
        "atoms": [
          {
            "elSymbol": "Cl",
            "p3d": {
              "x": 2.3243,
              "y": -0.0063,
              "z": 0.8189
            }
          }
        ],
        "bonds": []
      },
      "vertexId": 88,
      "buildingBlockId": 66,
      "buildingBlockType": "FRAGMENT",
      "isRCV": false,
      "properties": {
        "ATTACHMENT_POINTS": "1#Xlig:1:SINGLE:-0.0053%-0.0027%0.6300 "
      },
      "uniquefyingPropertyKeys": [],
      "allowedMutationTypes": [
        "DELETE",
        "EXTEND",
        "CHANGEBRANCH",
        "CHANGELINK",
        "ADDLINK",
        "DELETELINK",
        "DELETECHAIN"
      ],
      "vertexType": "MolecularFragment"
    },
    {
      "lstAPs": [
        {
          "id": 176405,
          "atomPositionNumber": 0,
          "atomPositionNumberInMol": 32,
          "apClass": {
            "rule": "SubArS",
            "subClass": 1,
            "bndTyp": "SINGLE"
          },
          "dirVec": {
            "x": 0.2973,
            "y": 0.3873,
            "z": -0.6389
          }
        }
      ],
      "lstSymAPs": [],
      "mol": {
        "atoms": [
          {
            "elSymbol": "C",
            "p3d": {
              "x": 1.6995,
              "y": 0.5593,
              "z": -1.2083
            }
          },
          {
            "elSymbol": "C",
            "p3d": {
              "x": 4.2563,
              "y": 0.8754,
              "z": -2.2592
            }
          },
          {
            "elSymbol": "C",
            "p3d": {
              "x": 2.3334,
              "y": 1.79,
              "z": -1.1338
            }
          },
          {
            "elSymbol": "C",
            "p3d": {
              "x": 2.3422,
              "y": -0.5107,
              "z": -1.8125
            }
          },
          {
            "elSymbol": "C",
            "p3d": {
              "x": 3.612,
              "y": -0.3527,
              "z": -2.3321
            }
          },
          {
            "elSymbol": "C",
            "p3d": {
              "x": 3.6062,
              "y": 1.9513,
              "z": -1.6526
            }
          },
          {
            "elSymbol": "H",
            "p3d": {
              "x": 1.833,
              "y": 2.6461,
              "z": -0.6488
            }
          },
          {
            "elSymbol": "H",
            "p3d": {
              "x": 1.8361,
              "y": -1.4773,
              "z": -1.887
            }
          },
          {
            "elSymbol": "H",
            "p3d": {
              "x": 4.115,
              "y": -1.2043,
              "z": -2.8152
            }
          },
          {
            "elSymbol": "H",
            "p3d": {
              "x": 4.1097,
              "y": 2.9214,
              "z": -1.5842
            }
          },
          {
            "elSymbol": "H",
            "p3d": {
              "x": 5.2498,
              "y": 0.9926,
              "z": -2.665
            }
          }
        ],
        "bonds": [
          {
            "atomIds": [
              0,
              3
            ],
            "bo": "SINGLE"
          },
          {
            "atomIds": [
              3,
              4
            ],
            "bo": "DOUBLE"
          },
          {
            "atomIds": [
              1,
              4
            ],
            "bo": "SINGLE"
          },
          {
            "atomIds": [
              1,
              5
            ],
            "bo": "DOUBLE"
          },
          {
            "atomIds": [
              2,
              5
            ],
            "bo": "SINGLE"
          },
          {
            "atomIds": [
              0,
              2
            ],
            "bo": "DOUBLE"
          },
          {
            "atomIds": [
              4,
              8
            ],
            "bo": "SINGLE"
          },
          {
            "atomIds": [
              5,
              9
            ],
            "bo": "SINGLE"
          },
          {
            "atomIds": [
              1,
              10
            ],
            "bo": "SINGLE"
          },
          {
            "atomIds": [
              2,
              6
            ],
            "bo": "SINGLE"
          },
          {
            "atomIds": [
              3,
              7
            ],
            "bo": "SINGLE"
          }
        ]
      },
      "vertexId": 134549,
      "buildingBlockId": 35,
      "buildingBlockType": "FRAGMENT",
      "isRCV": false,
      "properties": {
        "ATTACHMENT_POINTS": "1#SubArS:1:SINGLE:0.2973%0.3873%-0.6389 "
      },
      "uniquefyingPropertyKeys": [],
      "allowedMutationTypes": [
        "DELETE",
        "EXTEND",
        "CHANGEBRANCH",
        "CHANGELINK",
        "ADDLINK",
        "DELETELINK",
        "DELETECHAIN"
      ],
      "vertexType": "MolecularFragment"
    }
  ],
  "gEdges": [
    {
      "srcAPID": 176374,
      "trgAPID": 176377,
      "bondType": "SINGLE"
    },
    {
      "srcAPID": 176376,
      "trgAPID": 176379,
      "bondType": "SINGLE"
    },
    {
      "srcAPID": 176375,
      "trgAPID": 176380,
      "bondType": "SINGLE"
    },
    {
      "srcAPID": 176378,
      "trgAPID": 176405,
      "bondType": "SINGLE"
    }
  ],
  "gRings": [],
  "symVertices": []
}

> <SMILES>
[Pt](C#O)(OC([H])([H])[H])([P]1(OC(C2(C(O1)([H])[H])C(C(C(C2([H])[H])([H])[H])([H])[H])([H])[H])([H])[H])C=3C(=C(C(=C(C3[H])[H])[H])[H])[H])Cl

$$$$
