M00018207
  CDK     04222215123D

 36 36  0  0  0  0  0  0  0  0999 V2000
   -2.5604    0.6370   -0.4006 Pt  0  0  0  0  0  0  0  0  0  0  0  0
   -4.4113    1.2051   -0.0497 C   0  0  0  0  0  0  0  0  0  0  0  0
   -5.4856    1.5382    0.1369 O   0  0  0  0  0  0  0  0  0  0  0  0
   -1.7915    2.1337    0.6410 C   0  0  0  0  0  0  0  0  0  0  0  0
   -1.3616    3.0194    1.2462 N   0  0  0  0  0  0  0  0  0  0  0  0
   -0.3827    0.0980   -0.7981 P   0  0  0  0  0  0  0  0  0  0  0  0
    0.6256   -0.2552    0.6963 C   0  0  0  0  0  0  0  0  0  0  0  0
    1.9783   -0.8587    3.0682 C   0  0  0  0  0  0  0  0  0  0  0  0
   -0.0801   -0.8181    1.7784 C   0  0  0  0  0  0  0  0  0  0  0  0
    2.0070   -0.0198    0.7860 C   0  0  0  0  0  0  0  0  0  0  0  0
    2.6752   -0.3223    1.9853 C   0  0  0  0  0  0  0  0  0  0  0  0
    0.6122   -1.1153    2.9656 C   0  0  0  0  0  0  0  0  0  0  0  0
    3.7428   -0.1315    2.0765 H   0  0  0  0  0  0  0  0  0  0  0  0
    0.0779   -1.5400    3.8142 H   0  0  0  0  0  0  0  0  0  0  0  0
    2.5057   -1.0809    3.9977 H   0  0  0  0  0  0  0  0  0  0  0  0
   -1.5469   -1.1188    1.7476 C   0  0  0  0  0  0  0  0  0  0  0  0
   -2.1536   -0.1985    1.8847 H   0  0  0  0  0  0  0  0  0  0  0  0
   -1.8462   -1.7873    2.5720 H   0  0  0  0  0  0  0  0  0  0  0  0
   -1.8946   -1.6386    0.8345 H   0  0  0  0  0  0  0  0  0  0  0  0
    2.8386    0.5323   -0.3296 C   0  0  0  0  0  0  0  0  0  0  0  0
    2.6037    1.5935   -0.5182 H   0  0  0  0  0  0  0  0  0  0  0  0
    2.7314   -0.0324   -1.2657 H   0  0  0  0  0  0  0  0  0  0  0  0
    3.9148    0.5101   -0.0939 H   0  0  0  0  0  0  0  0  0  0  0  0
    0.2506    1.4153   -1.7181 N   0  0  0  0  0  0  0  0  0  0  0  0
    1.2374    1.6167   -1.8688 H   0  0  0  0  0  0  0  0  0  0  0  0
   -0.7078    2.3491   -2.3514 C   0  0  0  0  0  0  0  0  0  0  0  0
   -1.7509    1.9653   -2.3684 H   0  0  0  0  0  0  0  0  0  0  0  0
   -0.4186    2.5391   -3.4009 H   0  0  0  0  0  0  0  0  0  0  0  0
   -0.7191    3.3198   -1.8150 H   0  0  0  0  0  0  0  0  0  0  0  0
   -0.3284   -1.3433   -1.7551 N   0  0  0  0  0  0  0  0  0  0  0  0
   -1.1467   -1.6617   -2.2935 H   0  0  0  0  0  0  0  0  0  0  0  0
    0.8781   -2.1832   -1.8752 C   0  0  0  0  0  0  0  0  0  0  0  0
    0.5891   -3.2014   -2.1958 H   0  0  0  0  0  0  0  0  0  0  0  0
    1.4152   -2.2952   -0.9156 H   0  0  0  0  0  0  0  0  0  0  0  0
    1.5819   -1.7885   -2.6306 H   0  0  0  0  0  0  0  0  0  0  0  0
   -3.6795   -1.0818   -1.5869 Cl  0  0  0  0  0  0  0  0  0  0  0  0
  2  3  3  0  0  0  0
  1  2  1  0  0  0  0
  4  5  3  0  0  0  0
  1  4  1  0  0  0  0
  1  6  1  0  0  0  0
  7 10  1  0  0  0  0
 10 11  2  0  0  0  0
  8 11  1  0  0  0  0
  8 12  2  0  0  0  0
  9 12  1  0  0  0  0
  7  9  2  0  0  0  0
 11 13  1  0  0  0  0
 12 14  1  0  0  0  0
  8 15  1  0  0  0  0
 16 17  1  0  0  0  0
 16 18  1  0  0  0  0
 16 19  1  0  0  0  0
  9 16  1  0  0  0  0
 20 21  1  0  0  0  0
 20 22  1  0  0  0  0
 20 23  1  0  0  0  0
 10 20  1  0  0  0  0
  6  7  1  0  0  0  0
 25 24  1  0  0  0  0
  6 24  1  0  0  0  0
 27 26  1  0  0  0  0
 28 26  1  0  0  0  0
 29 26  1  0  0  0  0
 24 26  1  0  0  0  0
 31 30  1  0  0  0  0
  6 30  1  0  0  0  0
 33 32  1  0  0  0  0
 34 32  1  0  0  0  0
 35 32  1  0  0  0  0
 30 32  1  0  0  0  0
  1 36  1  0  0  0  0
M  END
> <PM6_ENERGY>
-82.334

> <UID>
YNULRDXFRKEDKX-AUZYRLPNNA-M

> <FITNESS>
1.14013

> <GCODE>
19568

> <GraphENC>
19568 72_1_0,81_66_1,100_3_1,88_67_1,234840_38_1,234832_5_1,235688_5_1,417092_2_2,417028_2_2, 72_0_81_0_SINGLE_Xlig:0_Xlig:1,72_2_100_3_SINGLE_scaff:0_MBisAminoPhosphine:1,72_1_88_0_SINGLE_Xlig:0_Xlig:1,100_2_234840_0_SINGLE_LBisAminoPhosphineSubR:0_SubArL:1,100_0_234832_0_SINGLE_LBisAminoPhosphineN:0_LAminoPhosphineNH:1,100_1_235688_0_SINGLE_LBisAminoPhosphineN:0_LAminoPhosphineNH:1,235688_1_417092_0_SINGLE_AminoPhosphineSubNL:0_me:1,234832_1_417028_0_SINGLE_AminoPhosphineSubNL:0_me:1, SymmetricSet [symIds=[234832, 235688]] SymmetricSet [symIds=[417092, 417028]] 

> <GraphJson>
{
  "graphId": 19568,
  "gVertices": [
    {
      "lstAPs": [
        {
          "id": 527556,
          "atomPositionNumber": 0,
          "atomPositionNumberInMol": 0,
          "apClass": {
            "rule": "Xlig",
            "subClass": 0,
            "bndTyp": "SINGLE"
          },
          "dirVec": {
            "x": -2.3339,
            "y": -0.0087,
            "z": 0.8172
          }
        },
        {
          "id": 527557,
          "atomPositionNumber": 0,
          "atomPositionNumberInMol": 0,
          "apClass": {
            "rule": "Xlig",
            "subClass": 0,
            "bndTyp": "SINGLE"
          },
          "dirVec": {
            "x": 2.336,
            "y": -5.0E-4,
            "z": 0.829
          }
        },
        {
          "id": 527558,
          "atomPositionNumber": 0,
          "atomPositionNumberInMol": 0,
          "apClass": {
            "rule": "scaff",
            "subClass": 0,
            "bndTyp": "SINGLE"
          },
          "dirVec": {
            "x": -0.0095,
            "y": 0.0046,
            "z": -1.7113
          }
        }
      ],
      "lstSymAPs": [
        {
          "symIds": [
            0,
            1
          ]
        }
      ],
      "mol": {
        "atoms": [
          {
            "elSymbol": "Pt",
            "p3d": {
              "x": -0.0098,
              "y": 0.0049,
              "z": 0.6289
            }
          },
          {
            "elSymbol": "C",
            "p3d": {
              "x": -6.0E-4,
              "y": 0.0016,
              "z": 2.5609
            }
          },
          {
            "elSymbol": "O",
            "p3d": {
              "x": 0.0025,
              "y": -0.0041,
              "z": 3.6974
            }
          },
          {
            "elSymbol": "Du",
            "p3d": {
              "x": -0.007,
              "y": 1.0013,
              "z": 0.6372
            }
          },
          {
            "elSymbol": "Du",
            "p3d": {
              "x": -0.0014,
              "y": 0.9902,
              "z": 2.5698
            }
          }
        ],
        "bonds": [
          {
            "atomIds": [
              1,
              2
            ],
            "bo": "TRIPLE"
          },
          {
            "atomIds": [
              0,
              1
            ],
            "bo": "SINGLE"
          },
          {
            "atomIds": [
              3,
              0
            ],
            "bo": "SINGLE"
          },
          {
            "atomIds": [
              4,
              1
            ],
            "bo": "SINGLE"
          }
        ]
      },
      "vertexId": 72,
      "buildingBlockId": 0,
      "buildingBlockType": "SCAFFOLD",
      "isRCV": false,
      "properties": {
        "ATTACHMENT_POINTS": "1#Xlig:0:SINGLE:-2.3339%-0.0087%0.8172,Xlig:0:SINGLE:2.3360%-0.0005%0.8290,scaff:0:SINGLE:-0.0095%0.0046%-1.7113 "
      },
      "uniquefyingPropertyKeys": [],
      "allowedMutationTypes": [
        "DELETE",
        "EXTEND",
        "CHANGEBRANCH",
        "CHANGELINK",
        "ADDLINK",
        "DELETELINK",
        "DELETECHAIN"
      ],
      "vertexType": "MolecularFragment"
    },
    {
      "lstAPs": [
        {
          "id": 527559,
          "atomPositionNumber": 0,
          "atomPositionNumberInMol": 5,
          "apClass": {
            "rule": "Xlig",
            "subClass": 1,
            "bndTyp": "SINGLE"
          },
          "dirVec": {
            "x": 0.0192,
            "y": -0.0048,
            "z": -0.5645
          }
        }
      ],
      "lstSymAPs": [],
      "mol": {
        "atoms": [
          {
            "elSymbol": "C",
            "p3d": {
              "x": -1.967,
              "y": -0.0075,
              "z": -0.4937
            }
          },
          {
            "elSymbol": "N",
            "p3d": {
              "x": -3.1263,
              "y": -0.0054,
              "z": -0.4354
            }
          },
          {
            "elSymbol": "Du",
            "p3d": {
              "x": -1.9744,
              "y": 0.9926,
              "z": -0.5036
            }
          }
        ],
        "bonds": [
          {
            "atomIds": [
              0,
              1
            ],
            "bo": "TRIPLE"
          },
          {
            "atomIds": [
              2,
              0
            ],
            "bo": "SINGLE"
          }
        ]
      },
      "vertexId": 81,
      "buildingBlockId": 65,
      "buildingBlockType": "FRAGMENT",
      "isRCV": false,
      "properties": {
        "ATTACHMENT_POINTS": "1#Xlig:1:SINGLE:0.0192%-0.0048%-0.5645 "
      },
      "uniquefyingPropertyKeys": [],
      "allowedMutationTypes": [
        "DELETE",
        "EXTEND",
        "CHANGEBRANCH",
        "CHANGELINK",
        "ADDLINK",
        "DELETELINK",
        "DELETECHAIN"
      ],
      "vertexType": "MolecularFragment"
    },
    {
      "lstAPs": [
        {
          "id": 527560,
          "atomPositionNumber": 0,
          "atomPositionNumberInMol": 8,
          "apClass": {
            "rule": "LBisAminoPhosphineN",
            "subClass": 0,
            "bndTyp": "SINGLE"
          },
          "dirVec": {
            "x": -1.9272,
            "y": -0.2351,
            "z": 5.6045
          }
        },
        {
          "id": 527561,
          "atomPositionNumber": 0,
          "atomPositionNumberInMol": 8,
          "apClass": {
            "rule": "LBisAminoPhosphineN",
            "subClass": 0,
            "bndTyp": "SINGLE"
          },
          "dirVec": {
            "x": -1.4136,
            "y": -2.2231,
            "z": 3.8983
          }
        },
        {
          "id": 527562,
          "atomPositionNumber": 0,
          "atomPositionNumberInMol": 8,
          "apClass": {
            "rule": "LBisAminoPhosphineSubR",
            "subClass": 0,
            "bndTyp": "SINGLE"
          },
          "dirVec": {
            "x": -3.1852,
            "y": -0.3594,
            "z": 3.1924
          }
        },
        {
          "id": 527563,
          "atomPositionNumber": 0,
          "atomPositionNumberInMol": 8,
          "apClass": {
            "rule": "MBisAminoPhosphine",
            "subClass": 1,
            "bndTyp": "SINGLE"
          },
          "dirVec": {
            "x": 0.1796,
            "y": 0.6567,
            "z": 3.3484
          }
        }
      ],
      "lstSymAPs": [
        {
          "symIds": [
            0,
            1
          ]
        }
      ],
      "mol": {
        "atoms": [
          {
            "elSymbol": "P",
            "p3d": {
              "x": -1.6038,
              "y": -0.5663,
              "z": 4.0324
            }
          }
        ],
        "bonds": []
      },
      "vertexId": 100,
      "buildingBlockId": 2,
      "buildingBlockType": "FRAGMENT",
      "isRCV": false,
      "properties": {
        "ATTACHMENT_POINTS": "1#LBisAminoPhosphineN:0:SINGLE:-1.9272%-0.2351%5.6045,LBisAminoPhosphineN:0:SINGLE:-1.4136%-2.2231%3.8983,LBisAminoPhosphineSubR:0:SINGLE:-3.1852%-0.3594%3.1924,MBisAminoPhosphine:1:SINGLE:0.1796%0.6567%3.3484 "
      },
      "uniquefyingPropertyKeys": [],
      "allowedMutationTypes": [
        "DELETE",
        "EXTEND",
        "CHANGEBRANCH",
        "CHANGELINK",
        "ADDLINK",
        "DELETELINK",
        "DELETECHAIN"
      ],
      "vertexType": "MolecularFragment"
    },
    {
      "lstAPs": [
        {
          "id": 527564,
          "atomPositionNumber": 0,
          "atomPositionNumberInMol": 38,
          "apClass": {
            "rule": "Xlig",
            "subClass": 1,
            "bndTyp": "SINGLE"
          },
          "dirVec": {
            "x": -0.0053,
            "y": -0.0027,
            "z": 0.63
          }
        }
      ],
      "lstSymAPs": [],
      "mol": {
        "atoms": [
          {
            "elSymbol": "Cl",
            "p3d": {
              "x": 2.3243,
              "y": -0.0063,
              "z": 0.8189
            }
          }
        ],
        "bonds": []
      },
      "vertexId": 88,
      "buildingBlockId": 66,
      "buildingBlockType": "FRAGMENT",
      "isRCV": false,
      "properties": {
        "ATTACHMENT_POINTS": "1#Xlig:1:SINGLE:-0.0053%-0.0027%0.6300 "
      },
      "uniquefyingPropertyKeys": [],
      "allowedMutationTypes": [
        "DELETE",
        "EXTEND",
        "CHANGEBRANCH",
        "CHANGELINK",
        "ADDLINK",
        "DELETELINK",
        "DELETECHAIN"
      ],
      "vertexType": "MolecularFragment"
    },
    {
      "lstAPs": [
        {
          "id": 527565,
          "atomPositionNumber": 0,
          "atomPositionNumberInMol": 9,
          "apClass": {
            "rule": "SubArL",
            "subClass": 1,
            "bndTyp": "SINGLE"
          },
          "dirVec": {
            "x": 0.2957,
            "y": 0.3816,
            "z": -0.6358
          }
        }
      ],
      "lstSymAPs": [],
      "mol": {
        "atoms": [
          {
            "elSymbol": "C",
            "p3d": {
              "x": 1.7088,
              "y": 0.551,
              "z": -1.2192
            }
          },
          {
            "elSymbol": "C",
            "p3d": {
              "x": 4.2535,
              "y": 0.8673,
              "z": -2.2548
            }
          },
          {
            "elSymbol": "C",
            "p3d": {
              "x": 2.3329,
              "y": 1.7979,
              "z": -1.1377
            }
          },
          {
            "elSymbol": "C",
            "p3d": {
              "x": 2.3315,
              "y": -0.5114,
              "z": -1.8171
            }
          },
          {
            "elSymbol": "C",
            "p3d": {
              "x": 3.6062,
              "y": -0.3595,
              "z": -2.3299
            }
          },
          {
            "elSymbol": "C",
            "p3d": {
              "x": 3.6205,
              "y": 1.9526,
              "z": -1.657
            }
          },
          {
            "elSymbol": "H",
            "p3d": {
              "x": 4.116,
              "y": -1.2062,
              "z": -2.8187
            }
          },
          {
            "elSymbol": "H",
            "p3d": {
              "x": 4.1193,
              "y": 2.9144,
              "z": -1.5883
            }
          },
          {
            "elSymbol": "H",
            "p3d": {
              "x": 5.2485,
              "y": 0.9961,
              "z": -2.6688
            }
          },
          {
            "elSymbol": "C",
            "p3d": {
              "x": 1.6389,
              "y": 2.9732,
              "z": -0.4581
            }
          },
          {
            "elSymbol": "H",
            "p3d": {
              "x": 2.3787,
              "y": 3.6649,
              "z": -0.0604
            }
          },
          {
            "elSymbol": "H",
            "p3d": {
              "x": 1.0049,
              "y": 2.601,
              "z": 0.3676
            }
          },
          {
            "elSymbol": "H",
            "p3d": {
              "x": 1.0013,
              "y": 3.4961,
              "z": -1.199
            }
          },
          {
            "elSymbol": "C",
            "p3d": {
              "x": 1.6397,
              "y": -1.8757,
              "z": -1.9164
            }
          },
          {
            "elSymbol": "H",
            "p3d": {
              "x": 2.3747,
              "y": -2.6603,
              "z": -1.9613
            }
          },
          {
            "elSymbol": "H",
            "p3d": {
              "x": 1.0044,
              "y": -1.9015,
              "z": -2.8054
            }
          },
          {
            "elSymbol": "H",
            "p3d": {
              "x": 1.0057,
              "y": -2.0243,
              "z": -1.0149
            }
          }
        ],
        "bonds": [
          {
            "atomIds": [
              0,
              3
            ],
            "bo": "SINGLE"
          },
          {
            "atomIds": [
              3,
              4
            ],
            "bo": "DOUBLE"
          },
          {
            "atomIds": [
              1,
              4
            ],
            "bo": "SINGLE"
          },
          {
            "atomIds": [
              1,
              5
            ],
            "bo": "DOUBLE"
          },
          {
            "atomIds": [
              2,
              5
            ],
            "bo": "SINGLE"
          },
          {
            "atomIds": [
              0,
              2
            ],
            "bo": "DOUBLE"
          },
          {
            "atomIds": [
              4,
              6
            ],
            "bo": "SINGLE"
          },
          {
            "atomIds": [
              5,
              7
            ],
            "bo": "SINGLE"
          },
          {
            "atomIds": [
              1,
              8
            ],
            "bo": "SINGLE"
          },
          {
            "atomIds": [
              9,
              10
            ],
            "bo": "SINGLE"
          },
          {
            "atomIds": [
              9,
              11
            ],
            "bo": "SINGLE"
          },
          {
            "atomIds": [
              9,
              12
            ],
            "bo": "SINGLE"
          },
          {
            "atomIds": [
              2,
              9
            ],
            "bo": "SINGLE"
          },
          {
            "atomIds": [
              13,
              14
            ],
            "bo": "SINGLE"
          },
          {
            "atomIds": [
              13,
              15
            ],
            "bo": "SINGLE"
          },
          {
            "atomIds": [
              13,
              16
            ],
            "bo": "SINGLE"
          },
          {
            "atomIds": [
              3,
              13
            ],
            "bo": "SINGLE"
          }
        ]
      },
      "vertexId": 234840,
      "buildingBlockId": 37,
      "buildingBlockType": "FRAGMENT",
      "isRCV": false,
      "properties": {
        "ATTACHMENT_POINTS": "1#SubArL:1:SINGLE:0.2957%0.3816%-0.6358 "
      },
      "uniquefyingPropertyKeys": [],
      "allowedMutationTypes": [
        "DELETE",
        "EXTEND",
        "CHANGEBRANCH",
        "CHANGELINK",
        "ADDLINK",
        "DELETELINK",
        "DELETECHAIN"
      ],
      "vertexType": "MolecularFragment"
    },
    {
      "lstAPs": [
        {
          "id": 527566,
          "atomPositionNumber": 0,
          "atomPositionNumberInMol": 26,
          "apClass": {
            "rule": "LAminoPhosphineNH",
            "subClass": 1,
            "bndTyp": "SINGLE"
          },
          "dirVec": {
            "x": 6.5561,
            "y": 10.0497,
            "z": 0.7834
          }
        },
        {
          "id": 527567,
          "atomPositionNumber": 0,
          "atomPositionNumberInMol": 26,
          "apClass": {
            "rule": "AminoPhosphineSubNL",
            "subClass": 0,
            "bndTyp": "SINGLE"
          },
          "dirVec": {
            "x": 5.3575,
            "y": 10.9907,
            "z": -1.5461
          }
        }
      ],
      "lstSymAPs": [],
      "mol": {
        "atoms": [
          {
            "elSymbol": "N",
            "p3d": {
              "x": 5.9053,
              "y": 11.1997,
              "z": -0.1783
            }
          },
          {
            "elSymbol": "H",
            "p3d": {
              "x": 6.5049,
              "y": 12.0079,
              "z": -0.2127
            }
          }
        ],
        "bonds": [
          {
            "atomIds": [
              1,
              0
            ],
            "bo": "SINGLE"
          }
        ]
      },
      "vertexId": 234832,
      "buildingBlockId": 4,
      "buildingBlockType": "FRAGMENT",
      "isRCV": false,
      "properties": {
        "ATTACHMENT_POINTS": "1#LAminoPhosphineNH:1:SINGLE:6.5561%10.0497%0.7834,AminoPhosphineSubNL:0:SINGLE:5.3575%10.9907%-1.5461 "
      },
      "uniquefyingPropertyKeys": [],
      "allowedMutationTypes": [
        "DELETE",
        "EXTEND",
        "CHANGEBRANCH",
        "CHANGELINK",
        "ADDLINK",
        "DELETELINK",
        "DELETECHAIN"
      ],
      "vertexType": "MolecularFragment"
    },
    {
      "lstAPs": [
        {
          "id": 527568,
          "atomPositionNumber": 0,
          "atomPositionNumberInMol": 32,
          "apClass": {
            "rule": "LAminoPhosphineNH",
            "subClass": 1,
            "bndTyp": "SINGLE"
          },
          "dirVec": {
            "x": 6.5561,
            "y": 10.0497,
            "z": 0.7834
          }
        },
        {
          "id": 527569,
          "atomPositionNumber": 0,
          "atomPositionNumberInMol": 32,
          "apClass": {
            "rule": "AminoPhosphineSubNL",
            "subClass": 0,
            "bndTyp": "SINGLE"
          },
          "dirVec": {
            "x": 5.3575,
            "y": 10.9907,
            "z": -1.5461
          }
        }
      ],
      "lstSymAPs": [],
      "mol": {
        "atoms": [
          {
            "elSymbol": "N",
            "p3d": {
              "x": 5.9053,
              "y": 11.1997,
              "z": -0.1783
            }
          },
          {
            "elSymbol": "H",
            "p3d": {
              "x": 6.5049,
              "y": 12.0079,
              "z": -0.2127
            }
          }
        ],
        "bonds": [
          {
            "atomIds": [
              1,
              0
            ],
            "bo": "SINGLE"
          }
        ]
      },
      "vertexId": 235688,
      "buildingBlockId": 4,
      "buildingBlockType": "FRAGMENT",
      "isRCV": false,
      "properties": {
        "ATTACHMENT_POINTS": "1#LAminoPhosphineNH:1:SINGLE:6.5561%10.0497%0.7834,AminoPhosphineSubNL:0:SINGLE:5.3575%10.9907%-1.5461 "
      },
      "uniquefyingPropertyKeys": [],
      "allowedMutationTypes": [
        "DELETE",
        "EXTEND",
        "CHANGEBRANCH",
        "CHANGELINK",
        "ADDLINK",
        "DELETELINK",
        "DELETECHAIN"
      ],
      "vertexType": "MolecularFragment"
    },
    {
      "lstAPs": [
        {
          "id": 527620,
          "atomPositionNumber": 0,
          "atomPositionNumberInMol": 34,
          "apClass": {
            "rule": "me",
            "subClass": 1,
            "bndTyp": "SINGLE"
          },
          "dirVec": {
            "x": 6.4052,
            "y": 0.4666,
            "z": 7.6784
          }
        }
      ],
      "lstSymAPs": [],
      "mol": {
        "atoms": [
          {
            "elSymbol": "C",
            "p3d": {
              "x": 5.1845,
              "y": -0.3158,
              "z": 7.9034
            }
          },
          {
            "elSymbol": "H",
            "p3d": {
              "x": 4.4018,
              "y": 0.0156,
              "z": 7.2277
            }
          },
          {
            "elSymbol": "H",
            "p3d": {
              "x": 4.8466,
              "y": -0.2064,
              "z": 8.9326
            }
          },
          {
            "elSymbol": "H",
            "p3d": {
              "x": 5.4032,
              "y": -1.3837,
              "z": 7.7252
            }
          }
        ],
        "bonds": [
          {
            "atomIds": [
              1,
              0
            ],
            "bo": "SINGLE"
          },
          {
            "atomIds": [
              2,
              0
            ],
            "bo": "SINGLE"
          },
          {
            "atomIds": [
              3,
              0
            ],
            "bo": "SINGLE"
          }
        ]
      },
      "vertexId": 417092,
      "buildingBlockId": 1,
      "buildingBlockType": "CAP",
      "isRCV": false,
      "properties": {
        "ATTACHMENT_POINTS": "1#me:1:SINGLE:6.4052%0.4666%7.6784 "
      },
      "uniquefyingPropertyKeys": [],
      "allowedMutationTypes": [
        "DELETE",
        "EXTEND",
        "CHANGEBRANCH",
        "CHANGELINK",
        "ADDLINK",
        "DELETELINK",
        "DELETECHAIN"
      ],
      "vertexType": "MolecularFragment"
    },
    {
      "lstAPs": [
        {
          "id": 527621,
          "atomPositionNumber": 0,
          "atomPositionNumberInMol": 28,
          "apClass": {
            "rule": "me",
            "subClass": 1,
            "bndTyp": "SINGLE"
          },
          "dirVec": {
            "x": 6.4052,
            "y": 0.4666,
            "z": 7.6784
          }
        }
      ],
      "lstSymAPs": [],
      "mol": {
        "atoms": [
          {
            "elSymbol": "C",
            "p3d": {
              "x": 5.1845,
              "y": -0.3158,
              "z": 7.9034
            }
          },
          {
            "elSymbol": "H",
            "p3d": {
              "x": 4.4018,
              "y": 0.0156,
              "z": 7.2277
            }
          },
          {
            "elSymbol": "H",
            "p3d": {
              "x": 4.8466,
              "y": -0.2064,
              "z": 8.9326
            }
          },
          {
            "elSymbol": "H",
            "p3d": {
              "x": 5.4032,
              "y": -1.3837,
              "z": 7.7252
            }
          }
        ],
        "bonds": [
          {
            "atomIds": [
              1,
              0
            ],
            "bo": "SINGLE"
          },
          {
            "atomIds": [
              2,
              0
            ],
            "bo": "SINGLE"
          },
          {
            "atomIds": [
              3,
              0
            ],
            "bo": "SINGLE"
          }
        ]
      },
      "vertexId": 417028,
      "buildingBlockId": 1,
      "buildingBlockType": "CAP",
      "isRCV": false,
      "properties": {
        "ATTACHMENT_POINTS": "1#me:1:SINGLE:6.4052%0.4666%7.6784 "
      },
      "uniquefyingPropertyKeys": [],
      "allowedMutationTypes": [
        "DELETE",
        "EXTEND",
        "CHANGEBRANCH",
        "CHANGELINK",
        "ADDLINK",
        "DELETELINK",
        "DELETECHAIN"
      ],
      "vertexType": "MolecularFragment"
    }
  ],
  "gEdges": [
    {
      "srcAPID": 527556,
      "trgAPID": 527559,
      "bondType": "SINGLE"
    },
    {
      "srcAPID": 527558,
      "trgAPID": 527563,
      "bondType": "SINGLE"
    },
    {
      "srcAPID": 527557,
      "trgAPID": 527564,
      "bondType": "SINGLE"
    },
    {
      "srcAPID": 527562,
      "trgAPID": 527565,
      "bondType": "SINGLE"
    },
    {
      "srcAPID": 527560,
      "trgAPID": 527566,
      "bondType": "SINGLE"
    },
    {
      "srcAPID": 527561,
      "trgAPID": 527568,
      "bondType": "SINGLE"
    },
    {
      "srcAPID": 527569,
      "trgAPID": 527620,
      "bondType": "SINGLE"
    },
    {
      "srcAPID": 527567,
      "trgAPID": 527621,
      "bondType": "SINGLE"
    }
  ],
  "gRings": [],
  "symVertices": [
    {
      "symIds": [
        234832,
        235688
      ]
    },
    {
      "symIds": [
        417092,
        417028
      ]
    }
  ]
}

> <SMILES>
[Pt](C#O)(C#N)([P](C=1C(=C(C(=C(C1C([H])([H])[H])[H])[H])[H])C([H])([H])[H])(N([H])C([H])([H])[H])N([H])C([H])([H])[H])Cl

$$$$
