M00009133
  CDK     04222211583D

 51 53  0  0  0  0  0  0  0  0999 V2000
   -2.6946   -0.0438    0.0683 Pt  0  0  0  0  0  0  0  0  0  0  0  0
   -4.6512   -0.1463    0.1217 C   0  0  0  0  0  0  0  0  0  0  0  0
   -5.7895   -0.2337    0.1483 O   0  0  0  0  0  0  0  0  0  0  0  0
   -2.7751   -0.2889   -1.9123 C   0  0  0  0  0  0  0  0  0  0  0  0
   -2.8399   -0.4251   -3.0582 N   0  0  0  0  0  0  0  0  0  0  0  0
   -0.4083   -0.0315   -0.0035 P   0  0  0  0  0  0  0  0  0  0  0  0
    0.1434   -0.9310   -1.3794 N   0  0  0  0  0  0  0  0  0  0  0  0
    0.2443   -2.4169   -1.4167 C   0  0  0  0  0  0  0  0  0  0  0  0
   -0.7384   -2.8817   -1.1786 H   0  0  0  0  0  0  0  0  0  0  0  0
    0.9912   -2.7815   -0.6794 H   0  0  0  0  0  0  0  0  0  0  0  0
    0.6730   -2.7634   -2.8583 C   0  0  0  0  0  0  0  0  0  0  0  0
    1.7229   -3.1006   -2.8856 H   0  0  0  0  0  0  0  0  0  0  0  0
    0.0638   -3.5867   -3.2683 H   0  0  0  0  0  0  0  0  0  0  0  0
    0.4899   -1.4787   -3.6867 C   0  0  0  0  0  0  0  0  0  0  0  0
   -0.4914   -1.4930   -4.2052 H   0  0  0  0  0  0  0  0  0  0  0  0
    1.2612   -1.3779   -4.4648 H   0  0  0  0  0  0  0  0  0  0  0  0
    0.5336   -0.3152   -2.6797 C   0  0  0  0  0  0  0  0  0  0  0  0
    1.5632    0.1127   -2.6057 H   0  0  0  0  0  0  0  0  0  0  0  0
   -0.1616    0.4994   -2.9740 H   0  0  0  0  0  0  0  0  0  0  0  0
    0.3995    1.6233   -0.0840 C   0  0  0  0  0  0  0  0  0  0  0  0
    1.5852    4.1651   -0.0481 C   0  0  0  0  0  0  0  0  0  0  0  0
   -0.4092    2.7752   -0.0497 C   0  0  0  0  0  0  0  0  0  0  0  0
    1.8024    1.7435   -0.1616 C   0  0  0  0  0  0  0  0  0  0  0  0
    2.3826    3.0240   -0.1295 C   0  0  0  0  0  0  0  0  0  0  0  0
    0.1983    4.0443   -0.0213 C   0  0  0  0  0  0  0  0  0  0  0  0
    3.4651    3.1303   -0.1736 H   0  0  0  0  0  0  0  0  0  0  0  0
   -0.4199    4.9399    0.0223 H   0  0  0  0  0  0  0  0  0  0  0  0
    2.0484    5.1528   -0.0150 H   0  0  0  0  0  0  0  0  0  0  0  0
   -1.9044    2.7506   -0.0581 C   0  0  0  0  0  0  0  0  0  0  0  0
   -2.3280    2.1683   -0.9019 H   0  0  0  0  0  0  0  0  0  0  0  0
   -2.3340    3.7602   -0.1712 H   0  0  0  0  0  0  0  0  0  0  0  0
   -2.3227    2.3697    0.8953 H   0  0  0  0  0  0  0  0  0  0  0  0
    2.7497    0.5979   -0.3219 C   0  0  0  0  0  0  0  0  0  0  0  0
    2.5988    0.0856   -1.2934 H   0  0  0  0  0  0  0  0  0  0  0  0
    2.6567   -0.1714    0.4661 H   0  0  0  0  0  0  0  0  0  0  0  0
    3.8018    0.9157   -0.3062 H   0  0  0  0  0  0  0  0  0  0  0  0
    0.0959   -0.8620    1.4219 N   0  0  0  0  0  0  0  0  0  0  0  0
    1.1626   -0.4571    2.3780 C   0  0  0  0  0  0  0  0  0  0  0  0
    1.0387    0.6068    2.6769 H   0  0  0  0  0  0  0  0  0  0  0  0
    2.1705   -0.5691    1.9076 H   0  0  0  0  0  0  0  0  0  0  0  0
    1.0073   -1.3970    3.5912 C   0  0  0  0  0  0  0  0  0  0  0  0
    1.8796   -2.0654    3.6852 H   0  0  0  0  0  0  0  0  0  0  0  0
    0.9436   -0.8217    4.5315 H   0  0  0  0  0  0  0  0  0  0  0  0
   -0.2827   -2.2083    3.3636 C   0  0  0  0  0  0  0  0  0  0  0  0
   -1.1181   -1.7654    3.9443 H   0  0  0  0  0  0  0  0  0  0  0  0
   -0.1752   -3.2505    3.7005 H   0  0  0  0  0  0  0  0  0  0  0  0
   -0.5783   -2.1205    1.8549 C   0  0  0  0  0  0  0  0  0  0  0  0
   -0.1482   -2.9959    1.3192 H   0  0  0  0  0  0  0  0  0  0  0  0
   -1.6737   -2.0944    1.6487 H   0  0  0  0  0  0  0  0  0  0  0  0
   -2.7023    0.2268    2.0510 C   0  0  0  0  0  0  0  0  0  0  0  0
   -2.7265    0.3826    3.1958 N   0  0  0  0  0  0  0  0  0  0  0  0
  2  3  3  0  0  0  0
  1  2  1  0  0  0  0
  4  5  3  0  0  0  0
  1  4  1  0  0  0  0
  1  6  1  0  0  0  0
  8  7  1  0  0  0  0
  9  8  1  0  0  0  0
 10  8  1  0  0  0  0
 11  8  1  0  0  0  0
 12 11  1  0  0  0  0
 13 11  1  0  0  0  0
 14 11  1  0  0  0  0
 15 14  1  0  0  0  0
 16 14  1  0  0  0  0
 17  7  1  0  0  0  0
 18 17  1  0  0  0  0
 19 17  1  0  0  0  0
 14 17  1  0  0  0  0
  6  7  1  0  0  0  0
 20 23  1  0  0  0  0
 23 24  2  0  0  0  0
 21 24  1  0  0  0  0
 21 25  2  0  0  0  0
 22 25  1  0  0  0  0
 20 22  2  0  0  0  0
 24 26  1  0  0  0  0
 25 27  1  0  0  0  0
 21 28  1  0  0  0  0
 29 30  1  0  0  0  0
 29 31  1  0  0  0  0
 29 32  1  0  0  0  0
 22 29  1  0  0  0  0
 33 34  1  0  0  0  0
 33 35  1  0  0  0  0
 33 36  1  0  0  0  0
 23 33  1  0  0  0  0
  6 20  1  0  0  0  0
 38 37  1  0  0  0  0
 39 38  1  0  0  0  0
 40 38  1  0  0  0  0
 41 38  1  0  0  0  0
 42 41  1  0  0  0  0
 43 41  1  0  0  0  0
 44 41  1  0  0  0  0
 45 44  1  0  0  0  0
 46 44  1  0  0  0  0
 47 37  1  0  0  0  0
 48 47  1  0  0  0  0
 49 47  1  0  0  0  0
 44 47  1  0  0  0  0
  6 37  1  0  0  0  0
 50 51  3  0  0  0  0
  1 50  1  0  0  0  0
M  END
> <PM6_ENERGY>
102.229

> <UID>
FZYBDAMRTDHWEP-WHMQREAJNA-N

> <FITNESS>
1.14196

> <GCODE>
10078

> <GraphENC>
10078 72_1_0,81_66_1,100_3_1,87_66_1,205493_7_1,205507_38_1,205599_7_1, 72_0_81_0_SINGLE_Xlig:0_Xlig:1,72_2_100_3_SINGLE_scaff:0_MBisAminoPhosphine:1,72_1_87_0_SINGLE_Xlig:0_Xlig:1,100_0_205493_0_SINGLE_LBisAminoPhosphineN:0_LAminoPhosphineCycloN:1,100_2_205507_0_SINGLE_LBisAminoPhosphineSubR:0_SubArL:1,100_1_205599_0_SINGLE_LBisAminoPhosphineN:0_LAminoPhosphineCycloN:1, SymmetricSet [symIds=[205493, 205599]] 

> <GraphJson>
{
  "graphId": 10078,
  "gVertices": [
    {
      "lstAPs": [
        {
          "id": 268451,
          "atomPositionNumber": 0,
          "atomPositionNumberInMol": 0,
          "apClass": {
            "rule": "Xlig",
            "subClass": 0,
            "bndTyp": "SINGLE"
          },
          "dirVec": {
            "x": -2.3339,
            "y": -0.0087,
            "z": 0.8172
          }
        },
        {
          "id": 268452,
          "atomPositionNumber": 0,
          "atomPositionNumberInMol": 0,
          "apClass": {
            "rule": "Xlig",
            "subClass": 0,
            "bndTyp": "SINGLE"
          },
          "dirVec": {
            "x": 2.336,
            "y": -5.0E-4,
            "z": 0.829
          }
        },
        {
          "id": 268453,
          "atomPositionNumber": 0,
          "atomPositionNumberInMol": 0,
          "apClass": {
            "rule": "scaff",
            "subClass": 0,
            "bndTyp": "SINGLE"
          },
          "dirVec": {
            "x": -0.0095,
            "y": 0.0046,
            "z": -1.7113
          }
        }
      ],
      "lstSymAPs": [
        {
          "symIds": [
            0,
            1
          ]
        }
      ],
      "mol": {
        "atoms": [
          {
            "elSymbol": "Pt",
            "p3d": {
              "x": -0.0098,
              "y": 0.0049,
              "z": 0.6289
            }
          },
          {
            "elSymbol": "C",
            "p3d": {
              "x": -6.0E-4,
              "y": 0.0016,
              "z": 2.5609
            }
          },
          {
            "elSymbol": "O",
            "p3d": {
              "x": 0.0025,
              "y": -0.0041,
              "z": 3.6974
            }
          },
          {
            "elSymbol": "Du",
            "p3d": {
              "x": -0.007,
              "y": 1.0013,
              "z": 0.6372
            }
          },
          {
            "elSymbol": "Du",
            "p3d": {
              "x": -0.0014,
              "y": 0.9902,
              "z": 2.5698
            }
          }
        ],
        "bonds": [
          {
            "atomIds": [
              1,
              2
            ],
            "bo": "TRIPLE"
          },
          {
            "atomIds": [
              0,
              1
            ],
            "bo": "SINGLE"
          },
          {
            "atomIds": [
              3,
              0
            ],
            "bo": "SINGLE"
          },
          {
            "atomIds": [
              4,
              1
            ],
            "bo": "SINGLE"
          }
        ]
      },
      "vertexId": 72,
      "buildingBlockId": 0,
      "buildingBlockType": "SCAFFOLD",
      "isRCV": false,
      "properties": {
        "ATTACHMENT_POINTS": "1#Xlig:0:SINGLE:-2.3339%-0.0087%0.8172,Xlig:0:SINGLE:2.3360%-0.0005%0.8290,scaff:0:SINGLE:-0.0095%0.0046%-1.7113 "
      },
      "uniquefyingPropertyKeys": [],
      "allowedMutationTypes": [
        "DELETE",
        "EXTEND",
        "CHANGEBRANCH",
        "CHANGELINK",
        "ADDLINK",
        "DELETELINK",
        "DELETECHAIN"
      ],
      "vertexType": "MolecularFragment"
    },
    {
      "lstAPs": [
        {
          "id": 268454,
          "atomPositionNumber": 0,
          "atomPositionNumberInMol": 5,
          "apClass": {
            "rule": "Xlig",
            "subClass": 1,
            "bndTyp": "SINGLE"
          },
          "dirVec": {
            "x": 0.0192,
            "y": -0.0048,
            "z": -0.5645
          }
        }
      ],
      "lstSymAPs": [],
      "mol": {
        "atoms": [
          {
            "elSymbol": "C",
            "p3d": {
              "x": -1.967,
              "y": -0.0075,
              "z": -0.4937
            }
          },
          {
            "elSymbol": "N",
            "p3d": {
              "x": -3.1263,
              "y": -0.0054,
              "z": -0.4354
            }
          },
          {
            "elSymbol": "Du",
            "p3d": {
              "x": -1.9744,
              "y": 0.9926,
              "z": -0.5036
            }
          }
        ],
        "bonds": [
          {
            "atomIds": [
              0,
              1
            ],
            "bo": "TRIPLE"
          },
          {
            "atomIds": [
              2,
              0
            ],
            "bo": "SINGLE"
          }
        ]
      },
      "vertexId": 81,
      "buildingBlockId": 65,
      "buildingBlockType": "FRAGMENT",
      "isRCV": false,
      "properties": {
        "ATTACHMENT_POINTS": "1#Xlig:1:SINGLE:0.0192%-0.0048%-0.5645 "
      },
      "uniquefyingPropertyKeys": [],
      "allowedMutationTypes": [
        "DELETE",
        "EXTEND",
        "CHANGEBRANCH",
        "CHANGELINK",
        "ADDLINK",
        "DELETELINK",
        "DELETECHAIN"
      ],
      "vertexType": "MolecularFragment"
    },
    {
      "lstAPs": [
        {
          "id": 268455,
          "atomPositionNumber": 0,
          "atomPositionNumberInMol": 8,
          "apClass": {
            "rule": "LBisAminoPhosphineN",
            "subClass": 0,
            "bndTyp": "SINGLE"
          },
          "dirVec": {
            "x": -1.9272,
            "y": -0.2351,
            "z": 5.6045
          }
        },
        {
          "id": 268456,
          "atomPositionNumber": 0,
          "atomPositionNumberInMol": 8,
          "apClass": {
            "rule": "LBisAminoPhosphineN",
            "subClass": 0,
            "bndTyp": "SINGLE"
          },
          "dirVec": {
            "x": -1.4136,
            "y": -2.2231,
            "z": 3.8983
          }
        },
        {
          "id": 268457,
          "atomPositionNumber": 0,
          "atomPositionNumberInMol": 8,
          "apClass": {
            "rule": "LBisAminoPhosphineSubR",
            "subClass": 0,
            "bndTyp": "SINGLE"
          },
          "dirVec": {
            "x": -3.1852,
            "y": -0.3594,
            "z": 3.1924
          }
        },
        {
          "id": 268458,
          "atomPositionNumber": 0,
          "atomPositionNumberInMol": 8,
          "apClass": {
            "rule": "MBisAminoPhosphine",
            "subClass": 1,
            "bndTyp": "SINGLE"
          },
          "dirVec": {
            "x": 0.1796,
            "y": 0.6567,
            "z": 3.3484
          }
        }
      ],
      "lstSymAPs": [
        {
          "symIds": [
            0,
            1
          ]
        }
      ],
      "mol": {
        "atoms": [
          {
            "elSymbol": "P",
            "p3d": {
              "x": -1.6038,
              "y": -0.5663,
              "z": 4.0324
            }
          }
        ],
        "bonds": []
      },
      "vertexId": 100,
      "buildingBlockId": 2,
      "buildingBlockType": "FRAGMENT",
      "isRCV": false,
      "properties": {
        "ATTACHMENT_POINTS": "1#LBisAminoPhosphineN:0:SINGLE:-1.9272%-0.2351%5.6045,LBisAminoPhosphineN:0:SINGLE:-1.4136%-2.2231%3.8983,LBisAminoPhosphineSubR:0:SINGLE:-3.1852%-0.3594%3.1924,MBisAminoPhosphine:1:SINGLE:0.1796%0.6567%3.3484 "
      },
      "uniquefyingPropertyKeys": [],
      "allowedMutationTypes": [
        "DELETE",
        "EXTEND",
        "CHANGEBRANCH",
        "CHANGELINK",
        "ADDLINK",
        "DELETELINK",
        "DELETECHAIN"
      ],
      "vertexType": "MolecularFragment"
    },
    {
      "lstAPs": [
        {
          "id": 268459,
          "atomPositionNumber": 0,
          "atomPositionNumberInMol": 52,
          "apClass": {
            "rule": "Xlig",
            "subClass": 1,
            "bndTyp": "SINGLE"
          },
          "dirVec": {
            "x": 0.0192,
            "y": -0.0048,
            "z": -0.5645
          }
        }
      ],
      "lstSymAPs": [],
      "mol": {
        "atoms": [
          {
            "elSymbol": "C",
            "p3d": {
              "x": -1.967,
              "y": -0.0075,
              "z": -0.4937
            }
          },
          {
            "elSymbol": "N",
            "p3d": {
              "x": -3.1263,
              "y": -0.0054,
              "z": -0.4354
            }
          },
          {
            "elSymbol": "Du",
            "p3d": {
              "x": -1.9744,
              "y": 0.9926,
              "z": -0.5036
            }
          }
        ],
        "bonds": [
          {
            "atomIds": [
              0,
              1
            ],
            "bo": "TRIPLE"
          },
          {
            "atomIds": [
              2,
              0
            ],
            "bo": "SINGLE"
          }
        ]
      },
      "vertexId": 87,
      "buildingBlockId": 65,
      "buildingBlockType": "FRAGMENT",
      "isRCV": false,
      "properties": {
        "ATTACHMENT_POINTS": "1#Xlig:1:SINGLE:0.0192%-0.0048%-0.5645 "
      },
      "uniquefyingPropertyKeys": [],
      "allowedMutationTypes": [
        "DELETE",
        "EXTEND",
        "CHANGEBRANCH",
        "CHANGELINK",
        "ADDLINK",
        "DELETELINK",
        "DELETECHAIN"
      ],
      "vertexType": "MolecularFragment"
    },
    {
      "lstAPs": [
        {
          "id": 268496,
          "atomPositionNumber": 0,
          "atomPositionNumberInMol": 9,
          "apClass": {
            "rule": "LAminoPhosphineCycloN",
            "subClass": 1,
            "bndTyp": "SINGLE"
          },
          "dirVec": {
            "x": -1.0842,
            "y": 2.354,
            "z": 2.6746
          }
        }
      ],
      "lstSymAPs": [],
      "mol": {
        "atoms": [
          {
            "elSymbol": "N",
            "p3d": {
              "x": -2.0922,
              "y": 2.0012,
              "z": 1.4169
            }
          },
          {
            "elSymbol": "C",
            "p3d": {
              "x": -3.1902,
              "y": 2.8736,
              "z": 0.9976
            }
          },
          {
            "elSymbol": "H",
            "p3d": {
              "x": -2.8134,
              "y": 3.8695,
              "z": 0.7407
            }
          },
          {
            "elSymbol": "H",
            "p3d": {
              "x": -3.9276,
              "y": 2.975,
              "z": 1.7817
            }
          },
          {
            "elSymbol": "C",
            "p3d": {
              "x": -3.7598,
              "y": 2.1938,
              "z": -0.2148
            }
          },
          {
            "elSymbol": "H",
            "p3d": {
              "x": -4.5232,
              "y": 1.4545,
              "z": 0.0879
            }
          },
          {
            "elSymbol": "H",
            "p3d": {
              "x": -4.218,
              "y": 2.9166,
              "z": -0.8771
            }
          },
          {
            "elSymbol": "C",
            "p3d": {
              "x": -2.6022,
              "y": 1.5522,
              "z": -0.816
            }
          },
          {
            "elSymbol": "H",
            "p3d": {
              "x": -2.0593,
              "y": 2.2535,
              "z": -1.4546
            }
          },
          {
            "elSymbol": "H",
            "p3d": {
              "x": -2.9084,
              "y": 0.6969,
              "z": -1.4358
            }
          },
          {
            "elSymbol": "C",
            "p3d": {
              "x": -1.7245,
              "y": 1.0767,
              "z": 0.3024
            }
          },
          {
            "elSymbol": "H",
            "p3d": {
              "x": -1.937,
              "y": 0.0454,
              "z": 0.5649
            }
          },
          {
            "elSymbol": "H",
            "p3d": {
              "x": -0.6676,
              "y": 1.1814,
              "z": 0.0388
            }
          }
        ],
        "bonds": [
          {
            "atomIds": [
              1,
              0
            ],
            "bo": "SINGLE"
          },
          {
            "atomIds": [
              2,
              1
            ],
            "bo": "SINGLE"
          },
          {
            "atomIds": [
              3,
              1
            ],
            "bo": "SINGLE"
          },
          {
            "atomIds": [
              4,
              1
            ],
            "bo": "SINGLE"
          },
          {
            "atomIds": [
              5,
              4
            ],
            "bo": "SINGLE"
          },
          {
            "atomIds": [
              6,
              4
            ],
            "bo": "SINGLE"
          },
          {
            "atomIds": [
              7,
              4
            ],
            "bo": "SINGLE"
          },
          {
            "atomIds": [
              8,
              7
            ],
            "bo": "SINGLE"
          },
          {
            "atomIds": [
              9,
              7
            ],
            "bo": "SINGLE"
          },
          {
            "atomIds": [
              10,
              0
            ],
            "bo": "SINGLE"
          },
          {
            "atomIds": [
              11,
              10
            ],
            "bo": "SINGLE"
          },
          {
            "atomIds": [
              12,
              10
            ],
            "bo": "SINGLE"
          },
          {
            "atomIds": [
              7,
              10
            ],
            "bo": "SINGLE"
          }
        ]
      },
      "vertexId": 205493,
      "buildingBlockId": 6,
      "buildingBlockType": "FRAGMENT",
      "isRCV": false,
      "properties": {
        "ATTACHMENT_POINTS": "1#LAminoPhosphineCycloN:1:SINGLE:-1.0842%2.3540%2.6746 "
      },
      "uniquefyingPropertyKeys": [],
      "allowedMutationTypes": [
        "DELETE",
        "EXTEND",
        "CHANGEBRANCH",
        "CHANGELINK",
        "ADDLINK",
        "DELETELINK",
        "DELETECHAIN"
      ],
      "vertexType": "MolecularFragment"
    },
    {
      "lstAPs": [
        {
          "id": 268497,
          "atomPositionNumber": 0,
          "atomPositionNumberInMol": 22,
          "apClass": {
            "rule": "SubArL",
            "subClass": 1,
            "bndTyp": "SINGLE"
          },
          "dirVec": {
            "x": 0.2957,
            "y": 0.3816,
            "z": -0.6358
          }
        }
      ],
      "lstSymAPs": [],
      "mol": {
        "atoms": [
          {
            "elSymbol": "C",
            "p3d": {
              "x": 1.7088,
              "y": 0.551,
              "z": -1.2192
            }
          },
          {
            "elSymbol": "C",
            "p3d": {
              "x": 4.2535,
              "y": 0.8673,
              "z": -2.2548
            }
          },
          {
            "elSymbol": "C",
            "p3d": {
              "x": 2.3329,
              "y": 1.7979,
              "z": -1.1377
            }
          },
          {
            "elSymbol": "C",
            "p3d": {
              "x": 2.3315,
              "y": -0.5114,
              "z": -1.8171
            }
          },
          {
            "elSymbol": "C",
            "p3d": {
              "x": 3.6062,
              "y": -0.3595,
              "z": -2.3299
            }
          },
          {
            "elSymbol": "C",
            "p3d": {
              "x": 3.6205,
              "y": 1.9526,
              "z": -1.657
            }
          },
          {
            "elSymbol": "H",
            "p3d": {
              "x": 4.116,
              "y": -1.2062,
              "z": -2.8187
            }
          },
          {
            "elSymbol": "H",
            "p3d": {
              "x": 4.1193,
              "y": 2.9144,
              "z": -1.5883
            }
          },
          {
            "elSymbol": "H",
            "p3d": {
              "x": 5.2485,
              "y": 0.9961,
              "z": -2.6688
            }
          },
          {
            "elSymbol": "C",
            "p3d": {
              "x": 1.6389,
              "y": 2.9732,
              "z": -0.4581
            }
          },
          {
            "elSymbol": "H",
            "p3d": {
              "x": 2.3787,
              "y": 3.6649,
              "z": -0.0604
            }
          },
          {
            "elSymbol": "H",
            "p3d": {
              "x": 1.0049,
              "y": 2.601,
              "z": 0.3676
            }
          },
          {
            "elSymbol": "H",
            "p3d": {
              "x": 1.0013,
              "y": 3.4961,
              "z": -1.199
            }
          },
          {
            "elSymbol": "C",
            "p3d": {
              "x": 1.6397,
              "y": -1.8757,
              "z": -1.9164
            }
          },
          {
            "elSymbol": "H",
            "p3d": {
              "x": 2.3747,
              "y": -2.6603,
              "z": -1.9613
            }
          },
          {
            "elSymbol": "H",
            "p3d": {
              "x": 1.0044,
              "y": -1.9015,
              "z": -2.8054
            }
          },
          {
            "elSymbol": "H",
            "p3d": {
              "x": 1.0057,
              "y": -2.0243,
              "z": -1.0149
            }
          }
        ],
        "bonds": [
          {
            "atomIds": [
              0,
              3
            ],
            "bo": "SINGLE"
          },
          {
            "atomIds": [
              3,
              4
            ],
            "bo": "DOUBLE"
          },
          {
            "atomIds": [
              1,
              4
            ],
            "bo": "SINGLE"
          },
          {
            "atomIds": [
              1,
              5
            ],
            "bo": "DOUBLE"
          },
          {
            "atomIds": [
              2,
              5
            ],
            "bo": "SINGLE"
          },
          {
            "atomIds": [
              0,
              2
            ],
            "bo": "DOUBLE"
          },
          {
            "atomIds": [
              4,
              6
            ],
            "bo": "SINGLE"
          },
          {
            "atomIds": [
              5,
              7
            ],
            "bo": "SINGLE"
          },
          {
            "atomIds": [
              1,
              8
            ],
            "bo": "SINGLE"
          },
          {
            "atomIds": [
              9,
              10
            ],
            "bo": "SINGLE"
          },
          {
            "atomIds": [
              9,
              11
            ],
            "bo": "SINGLE"
          },
          {
            "atomIds": [
              9,
              12
            ],
            "bo": "SINGLE"
          },
          {
            "atomIds": [
              2,
              9
            ],
            "bo": "SINGLE"
          },
          {
            "atomIds": [
              13,
              14
            ],
            "bo": "SINGLE"
          },
          {
            "atomIds": [
              13,
              15
            ],
            "bo": "SINGLE"
          },
          {
            "atomIds": [
              13,
              16
            ],
            "bo": "SINGLE"
          },
          {
            "atomIds": [
              3,
              13
            ],
            "bo": "SINGLE"
          }
        ]
      },
      "vertexId": 205507,
      "buildingBlockId": 37,
      "buildingBlockType": "FRAGMENT",
      "isRCV": false,
      "properties": {
        "ATTACHMENT_POINTS": "1#SubArL:1:SINGLE:0.2957%0.3816%-0.6358 "
      },
      "uniquefyingPropertyKeys": [],
      "allowedMutationTypes": [
        "DELETE",
        "EXTEND",
        "CHANGEBRANCH",
        "CHANGELINK",
        "ADDLINK",
        "DELETELINK",
        "DELETECHAIN"
      ],
      "vertexType": "MolecularFragment"
    },
    {
      "lstAPs": [
        {
          "id": 268498,
          "atomPositionNumber": 0,
          "atomPositionNumberInMol": 39,
          "apClass": {
            "rule": "LAminoPhosphineCycloN",
            "subClass": 1,
            "bndTyp": "SINGLE"
          },
          "dirVec": {
            "x": -1.0842,
            "y": 2.354,
            "z": 2.6746
          }
        }
      ],
      "lstSymAPs": [],
      "mol": {
        "atoms": [
          {
            "elSymbol": "N",
            "p3d": {
              "x": -2.0922,
              "y": 2.0012,
              "z": 1.4169
            }
          },
          {
            "elSymbol": "C",
            "p3d": {
              "x": -3.1902,
              "y": 2.8736,
              "z": 0.9976
            }
          },
          {
            "elSymbol": "H",
            "p3d": {
              "x": -2.8134,
              "y": 3.8695,
              "z": 0.7407
            }
          },
          {
            "elSymbol": "H",
            "p3d": {
              "x": -3.9276,
              "y": 2.975,
              "z": 1.7817
            }
          },
          {
            "elSymbol": "C",
            "p3d": {
              "x": -3.7598,
              "y": 2.1938,
              "z": -0.2148
            }
          },
          {
            "elSymbol": "H",
            "p3d": {
              "x": -4.5232,
              "y": 1.4545,
              "z": 0.0879
            }
          },
          {
            "elSymbol": "H",
            "p3d": {
              "x": -4.218,
              "y": 2.9166,
              "z": -0.8771
            }
          },
          {
            "elSymbol": "C",
            "p3d": {
              "x": -2.6022,
              "y": 1.5522,
              "z": -0.816
            }
          },
          {
            "elSymbol": "H",
            "p3d": {
              "x": -2.0593,
              "y": 2.2535,
              "z": -1.4546
            }
          },
          {
            "elSymbol": "H",
            "p3d": {
              "x": -2.9084,
              "y": 0.6969,
              "z": -1.4358
            }
          },
          {
            "elSymbol": "C",
            "p3d": {
              "x": -1.7245,
              "y": 1.0767,
              "z": 0.3024
            }
          },
          {
            "elSymbol": "H",
            "p3d": {
              "x": -1.937,
              "y": 0.0454,
              "z": 0.5649
            }
          },
          {
            "elSymbol": "H",
            "p3d": {
              "x": -0.6676,
              "y": 1.1814,
              "z": 0.0388
            }
          }
        ],
        "bonds": [
          {
            "atomIds": [
              1,
              0
            ],
            "bo": "SINGLE"
          },
          {
            "atomIds": [
              2,
              1
            ],
            "bo": "SINGLE"
          },
          {
            "atomIds": [
              3,
              1
            ],
            "bo": "SINGLE"
          },
          {
            "atomIds": [
              4,
              1
            ],
            "bo": "SINGLE"
          },
          {
            "atomIds": [
              5,
              4
            ],
            "bo": "SINGLE"
          },
          {
            "atomIds": [
              6,
              4
            ],
            "bo": "SINGLE"
          },
          {
            "atomIds": [
              7,
              4
            ],
            "bo": "SINGLE"
          },
          {
            "atomIds": [
              8,
              7
            ],
            "bo": "SINGLE"
          },
          {
            "atomIds": [
              9,
              7
            ],
            "bo": "SINGLE"
          },
          {
            "atomIds": [
              10,
              0
            ],
            "bo": "SINGLE"
          },
          {
            "atomIds": [
              11,
              10
            ],
            "bo": "SINGLE"
          },
          {
            "atomIds": [
              12,
              10
            ],
            "bo": "SINGLE"
          },
          {
            "atomIds": [
              7,
              10
            ],
            "bo": "SINGLE"
          }
        ]
      },
      "vertexId": 205599,
      "buildingBlockId": 6,
      "buildingBlockType": "FRAGMENT",
      "isRCV": false,
      "properties": {
        "ATTACHMENT_POINTS": "1#LAminoPhosphineCycloN:1:SINGLE:-1.0842%2.3540%2.6746 "
      },
      "uniquefyingPropertyKeys": [],
      "allowedMutationTypes": [
        "DELETE",
        "EXTEND",
        "CHANGEBRANCH",
        "CHANGELINK",
        "ADDLINK",
        "DELETELINK",
        "DELETECHAIN"
      ],
      "vertexType": "MolecularFragment"
    }
  ],
  "gEdges": [
    {
      "srcAPID": 268451,
      "trgAPID": 268454,
      "bondType": "SINGLE"
    },
    {
      "srcAPID": 268453,
      "trgAPID": 268458,
      "bondType": "SINGLE"
    },
    {
      "srcAPID": 268452,
      "trgAPID": 268459,
      "bondType": "SINGLE"
    },
    {
      "srcAPID": 268455,
      "trgAPID": 268496,
      "bondType": "SINGLE"
    },
    {
      "srcAPID": 268457,
      "trgAPID": 268497,
      "bondType": "SINGLE"
    },
    {
      "srcAPID": 268456,
      "trgAPID": 268498,
      "bondType": "SINGLE"
    }
  ],
  "gRings": [],
  "symVertices": [
    {
      "symIds": [
        205493,
        205599
      ]
    }
  ]
}

> <SMILES>
[Pt](C#O)(C#N)([P](N1C([H])([H])C([H])([H])C([H])([H])C1([H])[H])(C=2C(=C(C(=C(C2C([H])([H])[H])[H])[H])[H])C([H])([H])[H])N3C([H])([H])C([H])([H])C([H])([H])C3([H])[H])C#N

$$$$
