M00003952
  CDK     04222210073D

 65 69  0  0  0  0  0  0  0  0999 V2000
   -2.5613   -0.0826    0.2160 Pt  0  0  0  0  0  0  0  0  0  0  0  0
   -4.4500    0.1664    0.3783 C   0  0  0  0  0  0  0  0  0  0  0  0
   -5.5825    0.3160    0.4742 O   0  0  0  0  0  0  0  0  0  0  0  0
   -2.0927    1.8965    0.6202 O   0  0  0  0  0  0  0  0  0  0  0  0
   -2.2309    2.1742    1.9907 C   0  0  0  0  0  0  0  0  0  0  0  0
   -1.8007    3.1730    2.1467 H   0  0  0  0  0  0  0  0  0  0  0  0
   -1.6865    1.4262    2.5840 H   0  0  0  0  0  0  0  0  0  0  0  0
   -3.2948    2.1803    2.2615 H   0  0  0  0  0  0  0  0  0  0  0  0
    0.1458    0.2107   -1.0119 N   0  0  0  0  0  0  0  0  0  0  0  0
    0.3126   -0.7955    0.9809 N   0  0  0  0  0  0  0  0  0  0  0  0
   -0.5557   -0.3038    0.0452 C   0  0  1  0  0  0  0  0  0  0  0  0
    1.6499    0.2113   -0.7699 C   0  0  0  0  0  0  0  0  0  0  0  0
    1.7425   -0.6143    0.5607 C   0  0  0  0  0  0  0  0  0  0  0  0
    2.3232   -0.0875    1.3434 H   0  0  0  0  0  0  0  0  0  0  0  0
    2.2146   -1.6071    0.4084 H   0  0  0  0  0  0  0  0  0  0  0  0
   -0.9960    2.5862   -1.1819 H   0  0  0  0  0  0  0  0  0  0  0  0
   -0.9869    2.0342   -2.1373 C   0  0  0  0  0  0  0  0  0  0  0  0
   -0.4852    0.7504   -2.2002 C   0  0  0  0  0  0  0  0  0  0  0  0
   -1.5468    1.9565   -4.4948 C   0  0  0  0  0  0  0  0  0  0  0  0
   -0.5765   -0.0354   -3.4035 C   0  0  0  0  0  0  0  0  0  0  0  0
   -1.5213    2.6417   -3.3065 C   0  0  0  0  0  0  0  0  0  0  0  0
   -1.0880    0.6021   -4.5661 C   0  0  0  0  0  0  0  0  0  0  0  0
   -0.2253   -1.4198   -3.4746 C   0  0  0  0  0  0  0  0  0  0  0  0
   -1.9058    3.6592   -3.2333 H   0  0  0  0  0  0  0  0  0  0  0  0
   -1.5362    0.3707   -6.6812 H   0  0  0  0  0  0  0  0  0  0  0  0
   -1.9351    2.4232   -5.4000 H   0  0  0  0  0  0  0  0  0  0  0  0
   -0.3264   -2.1082   -4.6575 C   0  0  0  0  0  0  0  0  0  0  0  0
    0.0968   -1.9285   -2.5643 H   0  0  0  0  0  0  0  0  0  0  0  0
   -0.0724   -3.1665   -4.7105 H   0  0  0  0  0  0  0  0  0  0  0  0
   -0.7867   -1.4533   -5.8365 C   0  0  0  0  0  0  0  0  0  0  0  0
   -0.8460   -2.0222   -6.7636 H   0  0  0  0  0  0  0  0  0  0  0  0
   -1.1635   -0.1351   -5.7912 C   0  0  0  0  0  0  0  0  0  0  0  0
    3.8941   -0.5839   -1.7083 C   0  0  0  0  0  0  0  0  0  0  0  0
    2.3887   -0.4897   -1.9241 C   0  0  0  0  0  0  0  0  0  0  0  0
    4.1526   -1.1082   -0.7815 H   0  0  0  0  0  0  0  0  0  0  0  0
    4.3675   -1.1359   -2.5320 H   0  0  0  0  0  0  0  0  0  0  0  0
    4.3692    0.4044   -1.6746 H   0  0  0  0  0  0  0  0  0  0  0  0
    2.1810    0.0457   -2.8763 H   0  0  0  0  0  0  0  0  0  0  0  0
    1.9698   -1.5088   -2.0723 H   0  0  0  0  0  0  0  0  0  0  0  0
    1.3688    2.4608    0.4610 C   0  0  0  0  0  0  0  0  0  0  0  0
    2.1287    1.6700   -0.5967 C   0  0  0  0  0  0  0  0  0  0  0  0
    0.2851    2.5210    0.2391 H   0  0  0  0  0  0  0  0  0  0  0  0
    1.4519    2.0127    1.4638 H   0  0  0  0  0  0  0  0  0  0  0  0
    1.7394    3.4896    0.5261 H   0  0  0  0  0  0  0  0  0  0  0  0
    2.0399    2.1928   -1.5733 H   0  0  0  0  0  0  0  0  0  0  0  0
    3.2111    1.6662   -0.3578 H   0  0  0  0  0  0  0  0  0  0  0  0
   -0.9159   -3.1398    1.2501 H   0  0  0  0  0  0  0  0  0  0  0  0
   -0.6483   -2.6610    2.1981 C   0  0  0  0  0  0  0  0  0  0  0  0
   -0.0333   -1.4270    2.2322 C   0  0  0  0  0  0  0  0  0  0  0  0
   -0.6209   -2.7721    4.6213 C   0  0  0  0  0  0  0  0  0  0  0  0
    0.2931   -0.7819    3.4795 C   0  0  0  0  0  0  0  0  0  0  0  0
   -0.9513   -3.3337    3.4147 C   0  0  0  0  0  0  0  0  0  0  0  0
    0.0067   -1.4867    4.6797 C   0  0  0  0  0  0  0  0  0  0  0  0
    0.8655    0.5249    3.5690 C   0  0  0  0  0  0  0  0  0  0  0  0
   -1.4474   -4.3044    3.3592 H   0  0  0  0  0  0  0  0  0  0  0  0
    0.1266   -1.4462    6.8507 H   0  0  0  0  0  0  0  0  0  0  0  0
   -0.8378   -3.2898    5.5558 H   0  0  0  0  0  0  0  0  0  0  0  0
    1.1676    1.0768    4.7885 C   0  0  0  0  0  0  0  0  0  0  0  0
    1.0431    1.0951    2.6465 H   0  0  0  0  0  0  0  0  0  0  0  0
    1.6012    2.0738    4.8585 H   0  0  0  0  0  0  0  0  0  0  0  0
    0.9100    0.3564    5.9905 C   0  0  0  0  0  0  0  0  0  0  0  0
    1.1670    0.8161    6.9442 H   0  0  0  0  0  0  0  0  0  0  0  0
    0.3397   -0.8901    5.9381 C   0  0  0  0  0  0  0  0  0  0  0  0
   -2.8566   -1.9755   -0.2596 C   0  0  0  0  0  0  0  0  0  0  0  0
   -2.9890   -3.0907   -0.5351 N   0  0  0  0  0  0  0  0  0  0  0  0
  2  3  3  0  0  0  0
  1  2  1  0  0  0  0
  5  6  1  0  0  0  0
  5  7  1  0  0  0  0
  5  8  1  0  0  0  0
  4  5  1  0  0  0  0
  1  4  1  0  0  0  0
  9 11  1  0  0  0  0
 10 11  1  0  0  0  0
 12  9  1  0  0  0  0
 12 13  1  0  0  0  0
 13 10  1  0  0  0  0
 14 13  1  0  0  0  0
 15 13  1  0  0  0  0
  1 11  1  0  0  0  0
 16 17  1  0  0  0  0
 17 18  1  0  0  0  0
 17 21  2  0  0  0  0
 18 20  2  0  0  0  0
 20 22  1  0  0  0  0
 19 21  1  0  0  0  0
 19 22  2  0  0  0  0
 23 20  1  0  0  0  0
 22 32  1  0  0  0  0
 23 27  2  0  0  0  0
 27 30  1  0  0  0  0
 30 32  2  0  0  0  0
 19 26  1  0  0  0  0
 21 24  1  0  0  0  0
 23 28  1  0  0  0  0
 25 32  1  0  0  0  0
 30 31  1  0  0  0  0
 27 29  1  0  0  0  0
  9 18  1  0  0  0  0
 33 34  1  0  0  0  0
 33 35  1  0  0  0  0
 33 36  1  0  0  0  0
 33 37  1  0  0  0  0
 34 38  1  0  0  0  0
 34 39  1  0  0  0  0
 12 34  1  0  0  0  0
 40 41  1  0  0  0  0
 40 42  1  0  0  0  0
 40 43  1  0  0  0  0
 40 44  1  0  0  0  0
 41 45  1  0  0  0  0
 41 46  1  0  0  0  0
 12 41  1  0  0  0  0
 47 48  1  0  0  0  0
 48 49  1  0  0  0  0
 48 52  2  0  0  0  0
 49 51  2  0  0  0  0
 51 53  1  0  0  0  0
 50 52  1  0  0  0  0
 50 53  2  0  0  0  0
 54 51  1  0  0  0  0
 53 63  1  0  0  0  0
 54 58  2  0  0  0  0
 58 61  1  0  0  0  0
 61 63  2  0  0  0  0
 50 57  1  0  0  0  0
 52 55  1  0  0  0  0
 54 59  1  0  0  0  0
 56 63  1  0  0  0  0
 61 62  1  0  0  0  0
 58 60  1  0  0  0  0
 10 49  1  0  0  0  0
 64 65  3  0  0  0  0
  1 64  1  0  0  0  0
M  END
> <PM6_ENERGY>
306.123

> <UID>
SRMAVMMGTFIJHJ-KHUACJNONA-N

> <FITNESS>
1.14636

> <GCODE>
4675

> <GraphENC>
4675 72_1_0,80_65_1,95_17_1,87_66_1,91293_39_1,91786_32_1,91299_32_1,91785_39_1, 72_0_80_0_SINGLE_Xlig:0_Xlig:1,72_2_95_2_SINGLE_scaff:0_MImidazolidinylidene:1,72_1_87_0_SINGLE_Xlig:0_Xlig:1,95_0_91293_0_SINGLE_LImidazolidinylideneSubNL:0_SubArM:1,95_4_91786_0_SINGLE_LImidazolidinylideneSubCS:0_SubRS:1,95_3_91299_0_SINGLE_LImidazolidinylideneSubCS:0_SubRS:1,95_1_91785_0_SINGLE_LImidazolidinylideneSubNL:0_SubArM:1, SymmetricSet [symIds=[91293, 91785]] SymmetricSet [symIds=[91786, 91299]] 

> <GraphJson>
{
  "graphId": 4675,
  "gVertices": [
    {
      "lstAPs": [
        {
          "id": 120892,
          "atomPositionNumber": 0,
          "atomPositionNumberInMol": 0,
          "apClass": {
            "rule": "Xlig",
            "subClass": 0,
            "bndTyp": "SINGLE"
          },
          "dirVec": {
            "x": -2.3339,
            "y": -0.0087,
            "z": 0.8172
          }
        },
        {
          "id": 120893,
          "atomPositionNumber": 0,
          "atomPositionNumberInMol": 0,
          "apClass": {
            "rule": "Xlig",
            "subClass": 0,
            "bndTyp": "SINGLE"
          },
          "dirVec": {
            "x": 2.336,
            "y": -5.0E-4,
            "z": 0.829
          }
        },
        {
          "id": 120894,
          "atomPositionNumber": 0,
          "atomPositionNumberInMol": 0,
          "apClass": {
            "rule": "scaff",
            "subClass": 0,
            "bndTyp": "SINGLE"
          },
          "dirVec": {
            "x": -0.0095,
            "y": 0.0046,
            "z": -1.7113
          }
        }
      ],
      "lstSymAPs": [
        {
          "symIds": [
            0,
            1
          ]
        }
      ],
      "mol": {
        "atoms": [
          {
            "elSymbol": "Pt",
            "p3d": {
              "x": -0.0098,
              "y": 0.0049,
              "z": 0.6289
            }
          },
          {
            "elSymbol": "C",
            "p3d": {
              "x": -6.0E-4,
              "y": 0.0016,
              "z": 2.5609
            }
          },
          {
            "elSymbol": "O",
            "p3d": {
              "x": 0.0025,
              "y": -0.0041,
              "z": 3.6974
            }
          },
          {
            "elSymbol": "Du",
            "p3d": {
              "x": -0.007,
              "y": 1.0013,
              "z": 0.6372
            }
          },
          {
            "elSymbol": "Du",
            "p3d": {
              "x": -0.0014,
              "y": 0.9902,
              "z": 2.5698
            }
          }
        ],
        "bonds": [
          {
            "atomIds": [
              1,
              2
            ],
            "bo": "TRIPLE"
          },
          {
            "atomIds": [
              0,
              1
            ],
            "bo": "SINGLE"
          },
          {
            "atomIds": [
              3,
              0
            ],
            "bo": "SINGLE"
          },
          {
            "atomIds": [
              4,
              1
            ],
            "bo": "SINGLE"
          }
        ]
      },
      "vertexId": 72,
      "buildingBlockId": 0,
      "buildingBlockType": "SCAFFOLD",
      "isRCV": false,
      "properties": {
        "ATTACHMENT_POINTS": "1#Xlig:0:SINGLE:-2.3339%-0.0087%0.8172,Xlig:0:SINGLE:2.3360%-0.0005%0.8290,scaff:0:SINGLE:-0.0095%0.0046%-1.7113 "
      },
      "uniquefyingPropertyKeys": [],
      "allowedMutationTypes": [
        "DELETE",
        "EXTEND",
        "CHANGEBRANCH",
        "CHANGELINK",
        "ADDLINK",
        "DELETELINK",
        "DELETECHAIN"
      ],
      "vertexType": "MolecularFragment"
    },
    {
      "lstAPs": [
        {
          "id": 120895,
          "atomPositionNumber": 0,
          "atomPositionNumberInMol": 5,
          "apClass": {
            "rule": "Xlig",
            "subClass": 1,
            "bndTyp": "SINGLE"
          },
          "dirVec": {
            "x": -0.1753,
            "y": 0.0948,
            "z": -0.4464
          }
        }
      ],
      "lstSymAPs": [],
      "mol": {
        "atoms": [
          {
            "elSymbol": "O",
            "p3d": {
              "x": -0.3534,
              "y": 2.1044,
              "z": -0.7339
            }
          },
          {
            "elSymbol": "C",
            "p3d": {
              "x": -0.5345,
              "y": 2.7646,
              "z": 0.4801
            }
          },
          {
            "elSymbol": "H",
            "p3d": {
              "x": -0.3728,
              "y": 3.8337,
              "z": 0.2724
            }
          },
          {
            "elSymbol": "H",
            "p3d": {
              "x": 0.1816,
              "y": 2.4161,
              "z": 1.2384
            }
          },
          {
            "elSymbol": "H",
            "p3d": {
              "x": -1.553,
              "y": 2.6149,
              "z": 0.8489
            }
          }
        ],
        "bonds": [
          {
            "atomIds": [
              1,
              2
            ],
            "bo": "SINGLE"
          },
          {
            "atomIds": [
              1,
              3
            ],
            "bo": "SINGLE"
          },
          {
            "atomIds": [
              1,
              4
            ],
            "bo": "SINGLE"
          },
          {
            "atomIds": [
              0,
              1
            ],
            "bo": "SINGLE"
          }
        ]
      },
      "vertexId": 80,
      "buildingBlockId": 64,
      "buildingBlockType": "FRAGMENT",
      "isRCV": false,
      "properties": {
        "ATTACHMENT_POINTS": "1#Xlig:1:SINGLE:-0.1753%0.0948%-0.4464 "
      },
      "uniquefyingPropertyKeys": [],
      "allowedMutationTypes": [
        "DELETE",
        "EXTEND",
        "CHANGEBRANCH",
        "CHANGELINK",
        "ADDLINK",
        "DELETELINK",
        "DELETECHAIN"
      ],
      "vertexType": "MolecularFragment"
    },
    {
      "lstAPs": [
        {
          "id": 120896,
          "atomPositionNumber": 0,
          "atomPositionNumberInMol": 10,
          "apClass": {
            "rule": "LImidazolidinylideneSubNL",
            "subClass": 0,
            "bndTyp": "SINGLE"
          },
          "dirVec": {
            "x": 7.7897,
            "y": 6.0821,
            "z": 4.7152
          }
        },
        {
          "id": 120897,
          "atomPositionNumber": 1,
          "atomPositionNumberInMol": 11,
          "apClass": {
            "rule": "LImidazolidinylideneSubNL",
            "subClass": 0,
            "bndTyp": "SINGLE"
          },
          "dirVec": {
            "x": 9.2442,
            "y": 7.4469,
            "z": 0.1412
          }
        },
        {
          "id": 120898,
          "atomPositionNumber": 2,
          "atomPositionNumberInMol": 12,
          "apClass": {
            "rule": "MImidazolidinylidene",
            "subClass": 1,
            "bndTyp": "SINGLE"
          },
          "dirVec": {
            "x": 7.3678,
            "y": 8.8196,
            "z": 2.9474
          }
        },
        {
          "id": 120899,
          "atomPositionNumber": 3,
          "atomPositionNumberInMol": 13,
          "apClass": {
            "rule": "LImidazolidinylideneSubCS",
            "subClass": 0,
            "bndTyp": "SINGLE"
          },
          "dirVec": {
            "x": 8.0114,
            "y": 3.5478,
            "z": 2.786
          }
        },
        {
          "id": 120900,
          "atomPositionNumber": 3,
          "atomPositionNumberInMol": 13,
          "apClass": {
            "rule": "LImidazolidinylideneSubCS",
            "subClass": 0,
            "bndTyp": "SINGLE"
          },
          "dirVec": {
            "x": 10.1821,
            "y": 4.5337,
            "z": 3.5842
          }
        }
      ],
      "lstSymAPs": [
        {
          "symIds": [
            0,
            1
          ]
        },
        {
          "symIds": [
            3,
            4
          ]
        }
      ],
      "mol": {
        "atoms": [
          {
            "elSymbol": "N",
            "p3d": {
              "x": 8.1682,
              "y": 5.9859,
              "z": 3.3103
            }
          },
          {
            "elSymbol": "N",
            "p3d": {
              "x": 8.7358,
              "y": 6.6342,
              "z": 1.2983
            }
          },
          {
            "elSymbol": "C",
            "p3d": {
              "x": 8.1698,
              "y": 7.0264,
              "z": 2.4525
            }
          },
          {
            "elSymbol": "C",
            "p3d": {
              "x": 8.8997,
              "y": 4.8098,
              "z": 2.7919
            }
          },
          {
            "elSymbol": "C",
            "p3d": {
              "x": 9.1818,
              "y": 5.2321,
              "z": 1.3562
            }
          },
          {
            "elSymbol": "H",
            "p3d": {
              "x": 8.6243,
              "y": 4.6089,
              "z": 0.6707
            }
          },
          {
            "elSymbol": "H",
            "p3d": {
              "x": 10.2262,
              "y": 5.1361,
              "z": 1.0989
            }
          }
        ],
        "bonds": [
          {
            "atomIds": [
              0,
              2
            ],
            "bo": "SINGLE"
          },
          {
            "atomIds": [
              1,
              2
            ],
            "bo": "SINGLE"
          },
          {
            "atomIds": [
              3,
              0
            ],
            "bo": "SINGLE"
          },
          {
            "atomIds": [
              3,
              4
            ],
            "bo": "SINGLE"
          },
          {
            "atomIds": [
              4,
              1
            ],
            "bo": "SINGLE"
          },
          {
            "atomIds": [
              5,
              4
            ],
            "bo": "SINGLE"
          },
          {
            "atomIds": [
              6,
              4
            ],
            "bo": "SINGLE"
          }
        ]
      },
      "vertexId": 95,
      "buildingBlockId": 16,
      "buildingBlockType": "FRAGMENT",
      "isRCV": false,
      "properties": {
        "ATTACHMENT_POINTS": "1#LImidazolidinylideneSubNL:0:SINGLE:7.7897%6.0821%4.7152 2#LImidazolidinylideneSubNL:0:SINGLE:9.2442%7.4469%0.1412 3#MImidazolidinylidene:1:SINGLE:7.3678%8.8196%2.9474 4#LImidazolidinylideneSubCS:0:SINGLE:8.0114%3.5478%2.7860,LImidazolidinylideneSubCS:0:SINGLE:10.1821%4.5337%3.5842 "
      },
      "uniquefyingPropertyKeys": [],
      "allowedMutationTypes": [
        "DELETE",
        "EXTEND",
        "CHANGEBRANCH",
        "CHANGELINK",
        "ADDLINK",
        "DELETELINK",
        "DELETECHAIN"
      ],
      "vertexType": "MolecularFragment"
    },
    {
      "lstAPs": [
        {
          "id": 120901,
          "atomPositionNumber": 0,
          "atomPositionNumberInMol": 65,
          "apClass": {
            "rule": "Xlig",
            "subClass": 1,
            "bndTyp": "SINGLE"
          },
          "dirVec": {
            "x": 0.0192,
            "y": -0.0048,
            "z": -0.5645
          }
        }
      ],
      "lstSymAPs": [],
      "mol": {
        "atoms": [
          {
            "elSymbol": "C",
            "p3d": {
              "x": -1.967,
              "y": -0.0075,
              "z": -0.4937
            }
          },
          {
            "elSymbol": "N",
            "p3d": {
              "x": -3.1263,
              "y": -0.0054,
              "z": -0.4354
            }
          },
          {
            "elSymbol": "Du",
            "p3d": {
              "x": -1.9744,
              "y": 0.9926,
              "z": -0.5036
            }
          }
        ],
        "bonds": [
          {
            "atomIds": [
              0,
              1
            ],
            "bo": "TRIPLE"
          },
          {
            "atomIds": [
              2,
              0
            ],
            "bo": "SINGLE"
          }
        ]
      },
      "vertexId": 87,
      "buildingBlockId": 65,
      "buildingBlockType": "FRAGMENT",
      "isRCV": false,
      "properties": {
        "ATTACHMENT_POINTS": "1#Xlig:1:SINGLE:0.0192%-0.0048%-0.5645 "
      },
      "uniquefyingPropertyKeys": [],
      "allowedMutationTypes": [
        "DELETE",
        "EXTEND",
        "CHANGEBRANCH",
        "CHANGELINK",
        "ADDLINK",
        "DELETELINK",
        "DELETECHAIN"
      ],
      "vertexType": "MolecularFragment"
    },
    {
      "lstAPs": [
        {
          "id": 120944,
          "atomPositionNumber": 2,
          "atomPositionNumberInMol": 19,
          "apClass": {
            "rule": "SubArM",
            "subClass": 1,
            "bndTyp": "SINGLE"
          },
          "dirVec": {
            "x": 0.2839,
            "y": 0.3907,
            "z": -0.6271
          }
        }
      ],
      "lstSymAPs": [],
      "mol": {
        "atoms": [
          {
            "elSymbol": "H",
            "p3d": {
              "x": 1.8079,
              "y": 2.6521,
              "z": -0.6457
            }
          },
          {
            "elSymbol": "C",
            "p3d": {
              "x": 2.3292,
              "y": 1.8028,
              "z": -1.1346
            }
          },
          {
            "elSymbol": "C",
            "p3d": {
              "x": 1.6928,
              "y": 0.5701,
              "z": -1.2214
            }
          },
          {
            "elSymbol": "C",
            "p3d": {
              "x": 4.26,
              "y": 0.9161,
              "z": -2.2564
            }
          },
          {
            "elSymbol": "C",
            "p3d": {
              "x": 2.3547,
              "y": -0.5116,
              "z": -1.8205
            }
          },
          {
            "elSymbol": "C",
            "p3d": {
              "x": 3.6118,
              "y": 1.9867,
              "z": -1.654
            }
          },
          {
            "elSymbol": "C",
            "p3d": {
              "x": 3.6519,
              "y": -0.333,
              "z": -2.339
            }
          },
          {
            "elSymbol": "C",
            "p3d": {
              "x": 1.7318,
              "y": -1.7781,
              "z": -1.8989
            }
          },
          {
            "elSymbol": "H",
            "p3d": {
              "x": 4.0936,
              "y": 2.9609,
              "z": -1.5808
            }
          },
          {
            "elSymbol": "H",
            "p3d": {
              "x": 5.3077,
              "y": -1.3005,
              "z": -3.3639
            }
          },
          {
            "elSymbol": "H",
            "p3d": {
              "x": 5.2705,
              "y": 1.0583,
              "z": -2.6578
            }
          },
          {
            "elSymbol": "C",
            "p3d": {
              "x": 2.3998,
              "y": -2.8526,
              "z": -2.5007
            }
          },
          {
            "elSymbol": "H",
            "p3d": {
              "x": 0.724,
              "y": -1.9306,
              "z": -1.4908
            }
          },
          {
            "elSymbol": "H",
            "p3d": {
              "x": 1.9155,
              "y": -3.8304,
              "z": -2.576
            }
          },
          {
            "elSymbol": "C",
            "p3d": {
              "x": 3.684,
              "y": -2.6697,
              "z": -3.0355
            }
          },
          {
            "elSymbol": "H",
            "p3d": {
              "x": 4.2028,
              "y": -3.5195,
              "z": -3.4955
            }
          },
          {
            "elSymbol": "C",
            "p3d": {
              "x": 4.3092,
              "y": -1.4197,
              "z": -2.9387
            }
          }
        ],
        "bonds": [
          {
            "atomIds": [
              0,
              1
            ],
            "bo": "SINGLE"
          },
          {
            "atomIds": [
              1,
              2
            ],
            "bo": "SINGLE"
          },
          {
            "atomIds": [
              1,
              5
            ],
            "bo": "DOUBLE"
          },
          {
            "atomIds": [
              2,
              4
            ],
            "bo": "DOUBLE"
          },
          {
            "atomIds": [
              4,
              6
            ],
            "bo": "SINGLE"
          },
          {
            "atomIds": [
              3,
              5
            ],
            "bo": "SINGLE"
          },
          {
            "atomIds": [
              3,
              6
            ],
            "bo": "DOUBLE"
          },
          {
            "atomIds": [
              7,
              4
            ],
            "bo": "SINGLE"
          },
          {
            "atomIds": [
              6,
              16
            ],
            "bo": "SINGLE"
          },
          {
            "atomIds": [
              7,
              11
            ],
            "bo": "DOUBLE"
          },
          {
            "atomIds": [
              11,
              14
            ],
            "bo": "SINGLE"
          },
          {
            "atomIds": [
              14,
              16
            ],
            "bo": "DOUBLE"
          },
          {
            "atomIds": [
              3,
              10
            ],
            "bo": "SINGLE"
          },
          {
            "atomIds": [
              5,
              8
            ],
            "bo": "SINGLE"
          },
          {
            "atomIds": [
              7,
              12
            ],
            "bo": "SINGLE"
          },
          {
            "atomIds": [
              9,
              16
            ],
            "bo": "SINGLE"
          },
          {
            "atomIds": [
              14,
              15
            ],
            "bo": "SINGLE"
          },
          {
            "atomIds": [
              11,
              13
            ],
            "bo": "SINGLE"
          }
        ]
      },
      "vertexId": 91293,
      "buildingBlockId": 38,
      "buildingBlockType": "FRAGMENT",
      "isRCV": false,
      "properties": {
        "ATTACHMENT_POINTS": "3#SubArM:1:SINGLE:0.2839%0.3907%-0.6271 "
      },
      "uniquefyingPropertyKeys": [],
      "allowedMutationTypes": [
        "DELETE",
        "EXTEND",
        "CHANGEBRANCH",
        "CHANGELINK",
        "ADDLINK",
        "DELETELINK",
        "DELETECHAIN"
      ],
      "vertexType": "MolecularFragment"
    },
    {
      "lstAPs": [
        {
          "id": 120945,
          "atomPositionNumber": 1,
          "atomPositionNumberInMol": 35,
          "apClass": {
            "rule": "SubRS",
            "subClass": 1,
            "bndTyp": "SINGLE"
          },
          "dirVec": {
            "x": 0.2985,
            "y": 0.384,
            "z": -0.6258
          }
        }
      ],
      "lstSymAPs": [],
      "mol": {
        "atoms": [
          {
            "elSymbol": "C",
            "p3d": {
              "x": -1.0244,
              "y": -0.2225,
              "z": 1.3991
            }
          },
          {
            "elSymbol": "C",
            "p3d": {
              "x": 0.3973,
              "y": -0.042,
              "z": 0.8195
            }
          },
          {
            "elSymbol": "H",
            "p3d": {
              "x": -1.5635,
              "y": -0.9908,
              "z": 0.8263
            }
          },
          {
            "elSymbol": "H",
            "p3d": {
              "x": -0.941,
              "y": -0.535,
              "z": 2.446
            }
          },
          {
            "elSymbol": "H",
            "p3d": {
              "x": -1.5586,
              "y": 0.7335,
              "z": 1.3382
            }
          },
          {
            "elSymbol": "H",
            "p3d": {
              "x": 0.9335,
              "y": 0.7221,
              "z": 1.4011
            }
          },
          {
            "elSymbol": "H",
            "p3d": {
              "x": 0.927,
              "y": -1.0102,
              "z": 0.9001
            }
          }
        ],
        "bonds": [
          {
            "atomIds": [
              0,
              1
            ],
            "bo": "SINGLE"
          },
          {
            "atomIds": [
              0,
              2
            ],
            "bo": "SINGLE"
          },
          {
            "atomIds": [
              0,
              3
            ],
            "bo": "SINGLE"
          },
          {
            "atomIds": [
              0,
              4
            ],
            "bo": "SINGLE"
          },
          {
            "atomIds": [
              1,
              5
            ],
            "bo": "SINGLE"
          },
          {
            "atomIds": [
              1,
              6
            ],
            "bo": "SINGLE"
          }
        ]
      },
      "vertexId": 91786,
      "buildingBlockId": 31,
      "buildingBlockType": "FRAGMENT",
      "isRCV": false,
      "properties": {
        "ATTACHMENT_POINTS": "2#SubRS:1:SINGLE:0.2985%0.3840%-0.6258 "
      },
      "uniquefyingPropertyKeys": [],
      "allowedMutationTypes": [
        "DELETE",
        "EXTEND",
        "CHANGEBRANCH",
        "CHANGELINK",
        "ADDLINK",
        "DELETELINK",
        "DELETECHAIN"
      ],
      "vertexType": "MolecularFragment"
    },
    {
      "lstAPs": [
        {
          "id": 120946,
          "atomPositionNumber": 1,
          "atomPositionNumberInMol": 42,
          "apClass": {
            "rule": "SubRS",
            "subClass": 1,
            "bndTyp": "SINGLE"
          },
          "dirVec": {
            "x": 0.2985,
            "y": 0.384,
            "z": -0.6258
          }
        }
      ],
      "lstSymAPs": [],
      "mol": {
        "atoms": [
          {
            "elSymbol": "C",
            "p3d": {
              "x": -1.0244,
              "y": -0.2225,
              "z": 1.3991
            }
          },
          {
            "elSymbol": "C",
            "p3d": {
              "x": 0.3973,
              "y": -0.042,
              "z": 0.8195
            }
          },
          {
            "elSymbol": "H",
            "p3d": {
              "x": -1.5635,
              "y": -0.9908,
              "z": 0.8263
            }
          },
          {
            "elSymbol": "H",
            "p3d": {
              "x": -0.941,
              "y": -0.535,
              "z": 2.446
            }
          },
          {
            "elSymbol": "H",
            "p3d": {
              "x": -1.5586,
              "y": 0.7335,
              "z": 1.3382
            }
          },
          {
            "elSymbol": "H",
            "p3d": {
              "x": 0.9335,
              "y": 0.7221,
              "z": 1.4011
            }
          },
          {
            "elSymbol": "H",
            "p3d": {
              "x": 0.927,
              "y": -1.0102,
              "z": 0.9001
            }
          }
        ],
        "bonds": [
          {
            "atomIds": [
              0,
              1
            ],
            "bo": "SINGLE"
          },
          {
            "atomIds": [
              0,
              2
            ],
            "bo": "SINGLE"
          },
          {
            "atomIds": [
              0,
              3
            ],
            "bo": "SINGLE"
          },
          {
            "atomIds": [
              0,
              4
            ],
            "bo": "SINGLE"
          },
          {
            "atomIds": [
              1,
              5
            ],
            "bo": "SINGLE"
          },
          {
            "atomIds": [
              1,
              6
            ],
            "bo": "SINGLE"
          }
        ]
      },
      "vertexId": 91299,
      "buildingBlockId": 31,
      "buildingBlockType": "FRAGMENT",
      "isRCV": false,
      "properties": {
        "ATTACHMENT_POINTS": "2#SubRS:1:SINGLE:0.2985%0.3840%-0.6258 "
      },
      "uniquefyingPropertyKeys": [],
      "allowedMutationTypes": [
        "DELETE",
        "EXTEND",
        "CHANGEBRANCH",
        "CHANGELINK",
        "ADDLINK",
        "DELETELINK",
        "DELETECHAIN"
      ],
      "vertexType": "MolecularFragment"
    },
    {
      "lstAPs": [
        {
          "id": 120947,
          "atomPositionNumber": 2,
          "atomPositionNumberInMol": 50,
          "apClass": {
            "rule": "SubArM",
            "subClass": 1,
            "bndTyp": "SINGLE"
          },
          "dirVec": {
            "x": 0.2839,
            "y": 0.3907,
            "z": -0.6271
          }
        }
      ],
      "lstSymAPs": [],
      "mol": {
        "atoms": [
          {
            "elSymbol": "H",
            "p3d": {
              "x": 1.8079,
              "y": 2.6521,
              "z": -0.6457
            }
          },
          {
            "elSymbol": "C",
            "p3d": {
              "x": 2.3292,
              "y": 1.8028,
              "z": -1.1346
            }
          },
          {
            "elSymbol": "C",
            "p3d": {
              "x": 1.6928,
              "y": 0.5701,
              "z": -1.2214
            }
          },
          {
            "elSymbol": "C",
            "p3d": {
              "x": 4.26,
              "y": 0.9161,
              "z": -2.2564
            }
          },
          {
            "elSymbol": "C",
            "p3d": {
              "x": 2.3547,
              "y": -0.5116,
              "z": -1.8205
            }
          },
          {
            "elSymbol": "C",
            "p3d": {
              "x": 3.6118,
              "y": 1.9867,
              "z": -1.654
            }
          },
          {
            "elSymbol": "C",
            "p3d": {
              "x": 3.6519,
              "y": -0.333,
              "z": -2.339
            }
          },
          {
            "elSymbol": "C",
            "p3d": {
              "x": 1.7318,
              "y": -1.7781,
              "z": -1.8989
            }
          },
          {
            "elSymbol": "H",
            "p3d": {
              "x": 4.0936,
              "y": 2.9609,
              "z": -1.5808
            }
          },
          {
            "elSymbol": "H",
            "p3d": {
              "x": 5.3077,
              "y": -1.3005,
              "z": -3.3639
            }
          },
          {
            "elSymbol": "H",
            "p3d": {
              "x": 5.2705,
              "y": 1.0583,
              "z": -2.6578
            }
          },
          {
            "elSymbol": "C",
            "p3d": {
              "x": 2.3998,
              "y": -2.8526,
              "z": -2.5007
            }
          },
          {
            "elSymbol": "H",
            "p3d": {
              "x": 0.724,
              "y": -1.9306,
              "z": -1.4908
            }
          },
          {
            "elSymbol": "H",
            "p3d": {
              "x": 1.9155,
              "y": -3.8304,
              "z": -2.576
            }
          },
          {
            "elSymbol": "C",
            "p3d": {
              "x": 3.684,
              "y": -2.6697,
              "z": -3.0355
            }
          },
          {
            "elSymbol": "H",
            "p3d": {
              "x": 4.2028,
              "y": -3.5195,
              "z": -3.4955
            }
          },
          {
            "elSymbol": "C",
            "p3d": {
              "x": 4.3092,
              "y": -1.4197,
              "z": -2.9387
            }
          }
        ],
        "bonds": [
          {
            "atomIds": [
              0,
              1
            ],
            "bo": "SINGLE"
          },
          {
            "atomIds": [
              1,
              2
            ],
            "bo": "SINGLE"
          },
          {
            "atomIds": [
              1,
              5
            ],
            "bo": "DOUBLE"
          },
          {
            "atomIds": [
              2,
              4
            ],
            "bo": "DOUBLE"
          },
          {
            "atomIds": [
              4,
              6
            ],
            "bo": "SINGLE"
          },
          {
            "atomIds": [
              3,
              5
            ],
            "bo": "SINGLE"
          },
          {
            "atomIds": [
              3,
              6
            ],
            "bo": "DOUBLE"
          },
          {
            "atomIds": [
              7,
              4
            ],
            "bo": "SINGLE"
          },
          {
            "atomIds": [
              6,
              16
            ],
            "bo": "SINGLE"
          },
          {
            "atomIds": [
              7,
              11
            ],
            "bo": "DOUBLE"
          },
          {
            "atomIds": [
              11,
              14
            ],
            "bo": "SINGLE"
          },
          {
            "atomIds": [
              14,
              16
            ],
            "bo": "DOUBLE"
          },
          {
            "atomIds": [
              3,
              10
            ],
            "bo": "SINGLE"
          },
          {
            "atomIds": [
              5,
              8
            ],
            "bo": "SINGLE"
          },
          {
            "atomIds": [
              7,
              12
            ],
            "bo": "SINGLE"
          },
          {
            "atomIds": [
              9,
              16
            ],
            "bo": "SINGLE"
          },
          {
            "atomIds": [
              14,
              15
            ],
            "bo": "SINGLE"
          },
          {
            "atomIds": [
              11,
              13
            ],
            "bo": "SINGLE"
          }
        ]
      },
      "vertexId": 91785,
      "buildingBlockId": 38,
      "buildingBlockType": "FRAGMENT",
      "isRCV": false,
      "properties": {
        "ATTACHMENT_POINTS": "3#SubArM:1:SINGLE:0.2839%0.3907%-0.6271 "
      },
      "uniquefyingPropertyKeys": [],
      "allowedMutationTypes": [
        "DELETE",
        "EXTEND",
        "CHANGEBRANCH",
        "CHANGELINK",
        "ADDLINK",
        "DELETELINK",
        "DELETECHAIN"
      ],
      "vertexType": "MolecularFragment"
    }
  ],
  "gEdges": [
    {
      "srcAPID": 120892,
      "trgAPID": 120895,
      "bondType": "SINGLE"
    },
    {
      "srcAPID": 120894,
      "trgAPID": 120898,
      "bondType": "SINGLE"
    },
    {
      "srcAPID": 120893,
      "trgAPID": 120901,
      "bondType": "SINGLE"
    },
    {
      "srcAPID": 120896,
      "trgAPID": 120944,
      "bondType": "SINGLE"
    },
    {
      "srcAPID": 120900,
      "trgAPID": 120945,
      "bondType": "SINGLE"
    },
    {
      "srcAPID": 120899,
      "trgAPID": 120946,
      "bondType": "SINGLE"
    },
    {
      "srcAPID": 120897,
      "trgAPID": 120947,
      "bondType": "SINGLE"
    }
  ],
  "gRings": [],
  "symVertices": [
    {
      "symIds": [
        91293,
        91785
      ]
    },
    {
      "symIds": [
        91786,
        91299
      ]
    }
  ]
}

> <SMILES>
[Pt](C#O)(OC([H])([H])[H])([C]1N(C(C(N1C=2C([H])=C(C(=C3C2C(=C(C(=C3[H])[H])[H])[H])[H])[H])([H])[H])(C(C([H])([H])[H])([H])[H])C(C([H])([H])[H])([H])[H])C=4C([H])=C(C(=C5C4C(=C(C(=C5[H])[H])[H])[H])[H])[H])C#N

$$$$
