M00005319
  CDK     04222210363D

 34 34  0  0  0  0  0  0  0  0999 V2000
   -2.1897    0.0801    1.2950 Pt  0  0  0  0  0  0  0  0  0  0  0  0
   -4.1403    0.1672    1.2220 C   0  0  0  0  0  0  0  0  0  0  0  0
   -5.2817    0.2127    1.1891 O   0  0  0  0  0  0  0  0  0  0  0  0
   -1.5640    1.9924    0.9740 O   0  0  0  0  0  0  0  0  0  0  0  0
   -2.4205    2.6960    0.1000 C   0  0  0  0  0  0  0  0  0  0  0  0
   -1.9111    3.6471   -0.1113 H   0  0  0  0  0  0  0  0  0  0  0  0
   -3.3791    2.8863    0.5984 H   0  0  0  0  0  0  0  0  0  0  0  0
   -2.5584    2.1266   -0.8274 H   0  0  0  0  0  0  0  0  0  0  0  0
    0.0830    0.1049    1.3417 P   0  0  0  0  0  0  0  0  0  0  0  0
    0.6343    0.0090   -0.2875 N   0  0  0  0  0  0  0  0  0  0  0  0
    2.0439    0.1754   -0.7072 C   0  0  0  0  0  0  0  0  0  0  0  0
    2.7063    0.3821    0.1590 H   0  0  0  0  0  0  0  0  0  0  0  0
    2.1126    1.0606   -1.3843 H   0  0  0  0  0  0  0  0  0  0  0  0
    2.5259   -1.0858   -1.4526 C   0  0  0  0  0  0  0  0  0  0  0  0
    3.5541   -0.9301   -1.8262 H   0  0  0  0  0  0  0  0  0  0  0  0
    2.5749   -1.9409   -0.7511 H   0  0  0  0  0  0  0  0  0  0  0  0
    1.5829   -1.4280   -2.6153 C   0  0  0  0  0  0  0  0  0  0  0  0
    1.9113   -2.3661   -3.1015 H   0  0  0  0  0  0  0  0  0  0  0  0
    1.6431   -0.6422   -3.3927 H   0  0  0  0  0  0  0  0  0  0  0  0
    0.1338   -1.5726   -2.1304 C   0  0  0  0  0  0  0  0  0  0  0  0
   -0.5409   -1.7617   -2.9855 H   0  0  0  0  0  0  0  0  0  0  0  0
    0.0447   -2.4580   -1.4698 H   0  0  0  0  0  0  0  0  0  0  0  0
   -0.3279   -0.3123   -1.3729 C   0  0  0  0  0  0  0  0  0  0  0  0
   -0.3798    0.5547   -2.0732 H   0  0  0  0  0  0  0  0  0  0  0  0
   -1.3613   -0.4674   -0.9669 H   0  0  0  0  0  0  0  0  0  0  0  0
    0.7812   -1.3604    2.2825 C   0  0  0  0  0  0  0  0  0  0  0  0
    0.2312   -2.2795    2.0105 H   0  0  0  0  0  0  0  0  0  0  0  0
    1.8402   -1.5280    2.0670 H   0  0  0  0  0  0  0  0  0  0  0  0
    0.6604   -1.2344    3.3656 H   0  0  0  0  0  0  0  0  0  0  0  0
    0.8249    1.6070    2.1612 C   0  0  0  0  0  0  0  0  0  0  0  0
    0.6400    1.6024    3.2433 H   0  0  0  0  0  0  0  0  0  0  0  0
    1.9006    1.6933    1.9862 H   0  0  0  0  0  0  0  0  0  0  0  0
    0.3345    2.5231    1.7631 H   0  0  0  0  0  0  0  0  0  0  0  0
   -2.7089   -2.1535    1.6971 Cl  0  0  0  0  0  0  0  0  0  0  0  0
  2  3  3  0  0  0  0
  1  2  1  0  0  0  0
  5  6  1  0  0  0  0
  5  7  1  0  0  0  0
  5  8  1  0  0  0  0
  4  5  1  0  0  0  0
  1  4  1  0  0  0  0
  1  9  1  0  0  0  0
 11 10  1  0  0  0  0
 12 11  1  0  0  0  0
 13 11  1  0  0  0  0
 14 11  1  0  0  0  0
 15 14  1  0  0  0  0
 16 14  1  0  0  0  0
 17 14  1  0  0  0  0
 18 17  1  0  0  0  0
 19 17  1  0  0  0  0
 20 17  1  0  0  0  0
 21 20  1  0  0  0  0
 22 20  1  0  0  0  0
 23 10  1  0  0  0  0
 24 23  1  0  0  0  0
 25 23  1  0  0  0  0
 20 23  1  0  0  0  0
  9 10  1  0  0  0  0
 26 27  1  0  0  0  0
 26 28  1  0  0  0  0
 26 29  1  0  0  0  0
  9 26  1  0  0  0  0
 30 31  1  0  0  0  0
 30 32  1  0  0  0  0
 30 33  1  0  0  0  0
  9 30  1  0  0  0  0
  1 34  1  0  0  0  0
M  END
> <PM6_ENERGY>
-480.487

> <UID>
DGURMSYVLOVSMH-QPJCNLMDNA-M

> <FITNESS>
1.14278

> <GCODE>
6112

> <GraphENC>
6112 72_1_0,80_65_1,101_4_1,88_67_1,121503_8_1,121656_31_1,121511_31_1, 72_0_80_0_SINGLE_Xlig:0_Xlig:1,72_2_101_3_SINGLE_scaff:0_MMonoAminoPhosphine:1,72_1_88_0_SINGLE_Xlig:0_Xlig:1,101_0_121503_0_SINGLE_LMonoAminoPhosphineN:0_LAminoPhosphineCycloN:1,101_2_121656_0_SINGLE_LMonoAminoPhosphineSubR:0_SubRS:1,101_1_121511_0_SINGLE_LMonoAminoPhosphineSubR:0_SubRS:1, SymmetricSet [symIds=[121656, 121511]] 

> <GraphJson>
{
  "graphId": 6112,
  "gVertices": [
    {
      "lstAPs": [
        {
          "id": 159592,
          "atomPositionNumber": 0,
          "atomPositionNumberInMol": 0,
          "apClass": {
            "rule": "Xlig",
            "subClass": 0,
            "bndTyp": "SINGLE"
          },
          "dirVec": {
            "x": -2.3339,
            "y": -0.0087,
            "z": 0.8172
          }
        },
        {
          "id": 159593,
          "atomPositionNumber": 0,
          "atomPositionNumberInMol": 0,
          "apClass": {
            "rule": "Xlig",
            "subClass": 0,
            "bndTyp": "SINGLE"
          },
          "dirVec": {
            "x": 2.336,
            "y": -5.0E-4,
            "z": 0.829
          }
        },
        {
          "id": 159594,
          "atomPositionNumber": 0,
          "atomPositionNumberInMol": 0,
          "apClass": {
            "rule": "scaff",
            "subClass": 0,
            "bndTyp": "SINGLE"
          },
          "dirVec": {
            "x": -0.0095,
            "y": 0.0046,
            "z": -1.7113
          }
        }
      ],
      "lstSymAPs": [
        {
          "symIds": [
            0,
            1
          ]
        }
      ],
      "mol": {
        "atoms": [
          {
            "elSymbol": "Pt",
            "p3d": {
              "x": -0.0098,
              "y": 0.0049,
              "z": 0.6289
            }
          },
          {
            "elSymbol": "C",
            "p3d": {
              "x": -6.0E-4,
              "y": 0.0016,
              "z": 2.5609
            }
          },
          {
            "elSymbol": "O",
            "p3d": {
              "x": 0.0025,
              "y": -0.0041,
              "z": 3.6974
            }
          },
          {
            "elSymbol": "Du",
            "p3d": {
              "x": -0.007,
              "y": 1.0013,
              "z": 0.6372
            }
          },
          {
            "elSymbol": "Du",
            "p3d": {
              "x": -0.0014,
              "y": 0.9902,
              "z": 2.5698
            }
          }
        ],
        "bonds": [
          {
            "atomIds": [
              1,
              2
            ],
            "bo": "TRIPLE"
          },
          {
            "atomIds": [
              0,
              1
            ],
            "bo": "SINGLE"
          },
          {
            "atomIds": [
              3,
              0
            ],
            "bo": "SINGLE"
          },
          {
            "atomIds": [
              4,
              1
            ],
            "bo": "SINGLE"
          }
        ]
      },
      "vertexId": 72,
      "buildingBlockId": 0,
      "buildingBlockType": "SCAFFOLD",
      "isRCV": false,
      "properties": {
        "ATTACHMENT_POINTS": "1#Xlig:0:SINGLE:-2.3339%-0.0087%0.8172,Xlig:0:SINGLE:2.3360%-0.0005%0.8290,scaff:0:SINGLE:-0.0095%0.0046%-1.7113 "
      },
      "uniquefyingPropertyKeys": [],
      "allowedMutationTypes": [
        "DELETE",
        "EXTEND",
        "CHANGEBRANCH",
        "CHANGELINK",
        "ADDLINK",
        "DELETELINK",
        "DELETECHAIN"
      ],
      "vertexType": "MolecularFragment"
    },
    {
      "lstAPs": [
        {
          "id": 159595,
          "atomPositionNumber": 0,
          "atomPositionNumberInMol": 5,
          "apClass": {
            "rule": "Xlig",
            "subClass": 1,
            "bndTyp": "SINGLE"
          },
          "dirVec": {
            "x": -0.1753,
            "y": 0.0948,
            "z": -0.4464
          }
        }
      ],
      "lstSymAPs": [],
      "mol": {
        "atoms": [
          {
            "elSymbol": "O",
            "p3d": {
              "x": -0.3534,
              "y": 2.1044,
              "z": -0.7339
            }
          },
          {
            "elSymbol": "C",
            "p3d": {
              "x": -0.5345,
              "y": 2.7646,
              "z": 0.4801
            }
          },
          {
            "elSymbol": "H",
            "p3d": {
              "x": -0.3728,
              "y": 3.8337,
              "z": 0.2724
            }
          },
          {
            "elSymbol": "H",
            "p3d": {
              "x": 0.1816,
              "y": 2.4161,
              "z": 1.2384
            }
          },
          {
            "elSymbol": "H",
            "p3d": {
              "x": -1.553,
              "y": 2.6149,
              "z": 0.8489
            }
          }
        ],
        "bonds": [
          {
            "atomIds": [
              1,
              2
            ],
            "bo": "SINGLE"
          },
          {
            "atomIds": [
              1,
              3
            ],
            "bo": "SINGLE"
          },
          {
            "atomIds": [
              1,
              4
            ],
            "bo": "SINGLE"
          },
          {
            "atomIds": [
              0,
              1
            ],
            "bo": "SINGLE"
          }
        ]
      },
      "vertexId": 80,
      "buildingBlockId": 64,
      "buildingBlockType": "FRAGMENT",
      "isRCV": false,
      "properties": {
        "ATTACHMENT_POINTS": "1#Xlig:1:SINGLE:-0.1753%0.0948%-0.4464 "
      },
      "uniquefyingPropertyKeys": [],
      "allowedMutationTypes": [
        "DELETE",
        "EXTEND",
        "CHANGEBRANCH",
        "CHANGELINK",
        "ADDLINK",
        "DELETELINK",
        "DELETECHAIN"
      ],
      "vertexType": "MolecularFragment"
    },
    {
      "lstAPs": [
        {
          "id": 159596,
          "atomPositionNumber": 0,
          "atomPositionNumberInMol": 10,
          "apClass": {
            "rule": "LMonoAminoPhosphineN",
            "subClass": 0,
            "bndTyp": "SINGLE"
          },
          "dirVec": {
            "x": 3.1471,
            "y": 10.0719,
            "z": 6.8843
          }
        },
        {
          "id": 159597,
          "atomPositionNumber": 0,
          "atomPositionNumberInMol": 10,
          "apClass": {
            "rule": "LMonoAminoPhosphineSubR",
            "subClass": 0,
            "bndTyp": "SINGLE"
          },
          "dirVec": {
            "x": 0.3842,
            "y": 9.4902,
            "z": 6.7015
          }
        },
        {
          "id": 159598,
          "atomPositionNumber": 0,
          "atomPositionNumberInMol": 10,
          "apClass": {
            "rule": "LMonoAminoPhosphineSubR",
            "subClass": 0,
            "bndTyp": "SINGLE"
          },
          "dirVec": {
            "x": 2.2197,
            "y": 7.8057,
            "z": 8.2724
          }
        },
        {
          "id": 159599,
          "atomPositionNumber": 0,
          "atomPositionNumberInMol": 10,
          "apClass": {
            "rule": "MMonoAminoPhosphine",
            "subClass": 1,
            "bndTyp": "SINGLE"
          },
          "dirVec": {
            "x": 2.6023,
            "y": 7.6121,
            "z": 4.8117
          }
        }
      ],
      "lstSymAPs": [
        {
          "symIds": [
            1,
            2
          ]
        }
      ],
      "mol": {
        "atoms": [
          {
            "elSymbol": "P",
            "p3d": {
              "x": 2.1045,
              "y": 8.7901,
              "z": 6.7495
            }
          }
        ],
        "bonds": []
      },
      "vertexId": 101,
      "buildingBlockId": 3,
      "buildingBlockType": "FRAGMENT",
      "isRCV": false,
      "properties": {
        "ATTACHMENT_POINTS": "1#LMonoAminoPhosphineN:0:SINGLE:3.1471%10.0719%6.8843,LMonoAminoPhosphineSubR:0:SINGLE:0.3842%9.4902%6.7015,LMonoAminoPhosphineSubR:0:SINGLE:2.2197%7.8057%8.2724,MMonoAminoPhosphine:1:SINGLE:2.6023%7.6121%4.8117 "
      },
      "uniquefyingPropertyKeys": [],
      "allowedMutationTypes": [
        "DELETE",
        "EXTEND",
        "CHANGEBRANCH",
        "CHANGELINK",
        "ADDLINK",
        "DELETELINK",
        "DELETECHAIN"
      ],
      "vertexType": "MolecularFragment"
    },
    {
      "lstAPs": [
        {
          "id": 159600,
          "atomPositionNumber": 0,
          "atomPositionNumberInMol": 35,
          "apClass": {
            "rule": "Xlig",
            "subClass": 1,
            "bndTyp": "SINGLE"
          },
          "dirVec": {
            "x": -0.0053,
            "y": -0.0027,
            "z": 0.63
          }
        }
      ],
      "lstSymAPs": [],
      "mol": {
        "atoms": [
          {
            "elSymbol": "Cl",
            "p3d": {
              "x": 2.3243,
              "y": -0.0063,
              "z": 0.8189
            }
          }
        ],
        "bonds": []
      },
      "vertexId": 88,
      "buildingBlockId": 66,
      "buildingBlockType": "FRAGMENT",
      "isRCV": false,
      "properties": {
        "ATTACHMENT_POINTS": "1#Xlig:1:SINGLE:-0.0053%-0.0027%0.6300 "
      },
      "uniquefyingPropertyKeys": [],
      "allowedMutationTypes": [
        "DELETE",
        "EXTEND",
        "CHANGEBRANCH",
        "CHANGELINK",
        "ADDLINK",
        "DELETELINK",
        "DELETECHAIN"
      ],
      "vertexType": "MolecularFragment"
    },
    {
      "lstAPs": [
        {
          "id": 159637,
          "atomPositionNumber": 0,
          "atomPositionNumberInMol": 11,
          "apClass": {
            "rule": "LAminoPhosphineCycloN",
            "subClass": 1,
            "bndTyp": "SINGLE"
          },
          "dirVec": {
            "x": 4.555,
            "y": 2.7674,
            "z": 17.4338
          }
        }
      ],
      "lstSymAPs": [],
      "mol": {
        "atoms": [
          {
            "elSymbol": "N",
            "p3d": {
              "x": 2.9381,
              "y": 2.7068,
              "z": 17.7892
            }
          },
          {
            "elSymbol": "C",
            "p3d": {
              "x": 2.2822,
              "y": 1.6786,
              "z": 18.5885
            }
          },
          {
            "elSymbol": "H",
            "p3d": {
              "x": 3.041,
              "y": 1.1815,
              "z": 19.2164
            }
          },
          {
            "elSymbol": "H",
            "p3d": {
              "x": 1.8455,
              "y": 0.9233,
              "z": 17.9289
            }
          },
          {
            "elSymbol": "C",
            "p3d": {
              "x": 1.221,
              "y": 2.2587,
              "z": 19.4673
            }
          },
          {
            "elSymbol": "H",
            "p3d": {
              "x": 0.7008,
              "y": 1.4356,
              "z": 19.9909
            }
          },
          {
            "elSymbol": "H",
            "p3d": {
              "x": 1.6761,
              "y": 2.9055,
              "z": 20.224
            }
          },
          {
            "elSymbol": "C",
            "p3d": {
              "x": 0.2145,
              "y": 3.0313,
              "z": 18.6782
            }
          },
          {
            "elSymbol": "H",
            "p3d": {
              "x": -0.4814,
              "y": 3.5202,
              "z": 19.3328
            }
          },
          {
            "elSymbol": "H",
            "p3d": {
              "x": -0.3461,
              "y": 2.3431,
              "z": 18.0363
            }
          },
          {
            "elSymbol": "C",
            "p3d": {
              "x": 0.9189,
              "y": 4.0677,
              "z": 17.8031
            }
          },
          {
            "elSymbol": "H",
            "p3d": {
              "x": 0.1705,
              "y": 4.5445,
              "z": 17.1575
            }
          },
          {
            "elSymbol": "H",
            "p3d": {
              "x": 1.3757,
              "y": 4.8286,
              "z": 18.4283
            }
          },
          {
            "elSymbol": "C",
            "p3d": {
              "x": 1.9754,
              "y": 3.4167,
              "z": 16.9636
            }
          },
          {
            "elSymbol": "H",
            "p3d": {
              "x": 1.4943,
              "y": 2.7385,
              "z": 16.2522
            }
          },
          {
            "elSymbol": "H",
            "p3d": {
              "x": 2.4831,
              "y": 4.1915,
              "z": 16.365
            }
          }
        ],
        "bonds": [
          {
            "atomIds": [
              1,
              0
            ],
            "bo": "SINGLE"
          },
          {
            "atomIds": [
              2,
              1
            ],
            "bo": "SINGLE"
          },
          {
            "atomIds": [
              3,
              1
            ],
            "bo": "SINGLE"
          },
          {
            "atomIds": [
              4,
              1
            ],
            "bo": "SINGLE"
          },
          {
            "atomIds": [
              5,
              4
            ],
            "bo": "SINGLE"
          },
          {
            "atomIds": [
              6,
              4
            ],
            "bo": "SINGLE"
          },
          {
            "atomIds": [
              7,
              4
            ],
            "bo": "SINGLE"
          },
          {
            "atomIds": [
              8,
              7
            ],
            "bo": "SINGLE"
          },
          {
            "atomIds": [
              9,
              7
            ],
            "bo": "SINGLE"
          },
          {
            "atomIds": [
              10,
              7
            ],
            "bo": "SINGLE"
          },
          {
            "atomIds": [
              11,
              10
            ],
            "bo": "SINGLE"
          },
          {
            "atomIds": [
              12,
              10
            ],
            "bo": "SINGLE"
          },
          {
            "atomIds": [
              13,
              0
            ],
            "bo": "SINGLE"
          },
          {
            "atomIds": [
              14,
              13
            ],
            "bo": "SINGLE"
          },
          {
            "atomIds": [
              15,
              13
            ],
            "bo": "SINGLE"
          },
          {
            "atomIds": [
              10,
              13
            ],
            "bo": "SINGLE"
          }
        ]
      },
      "vertexId": 121503,
      "buildingBlockId": 7,
      "buildingBlockType": "FRAGMENT",
      "isRCV": false,
      "properties": {
        "ATTACHMENT_POINTS": "1#LAminoPhosphineCycloN:1:SINGLE:4.5550%2.7674%17.4338 "
      },
      "uniquefyingPropertyKeys": [],
      "allowedMutationTypes": [
        "DELETE",
        "EXTEND",
        "CHANGEBRANCH",
        "CHANGELINK",
        "ADDLINK",
        "DELETELINK",
        "DELETECHAIN"
      ],
      "vertexType": "MolecularFragment"
    },
    {
      "lstAPs": [
        {
          "id": 159638,
          "atomPositionNumber": 0,
          "atomPositionNumberInMol": 27,
          "apClass": {
            "rule": "SubRS",
            "subClass": 1,
            "bndTyp": "SINGLE"
          },
          "dirVec": {
            "x": 0.2865,
            "y": 0.3959,
            "z": -0.6387
          }
        }
      ],
      "lstSymAPs": [],
      "mol": {
        "atoms": [
          {
            "elSymbol": "C",
            "p3d": {
              "x": 0.3969,
              "y": -0.0496,
              "z": 0.8235
            }
          },
          {
            "elSymbol": "H",
            "p3d": {
              "x": -0.6146,
              "y": -0.163,
              "z": 1.2402
            }
          },
          {
            "elSymbol": "H",
            "p3d": {
              "x": 0.9335,
              "y": -0.9979,
              "z": 0.8998
            }
          },
          {
            "elSymbol": "H",
            "p3d": {
              "x": 0.9252,
              "y": 0.7237,
              "z": 1.3995
            }
          }
        ],
        "bonds": [
          {
            "atomIds": [
              0,
              1
            ],
            "bo": "SINGLE"
          },
          {
            "atomIds": [
              0,
              2
            ],
            "bo": "SINGLE"
          },
          {
            "atomIds": [
              0,
              3
            ],
            "bo": "SINGLE"
          }
        ]
      },
      "vertexId": 121656,
      "buildingBlockId": 30,
      "buildingBlockType": "FRAGMENT",
      "isRCV": false,
      "properties": {
        "ATTACHMENT_POINTS": "1#SubRS:1:SINGLE:0.2865%0.3959%-0.6387 "
      },
      "uniquefyingPropertyKeys": [],
      "allowedMutationTypes": [
        "DELETE",
        "EXTEND",
        "CHANGEBRANCH",
        "CHANGELINK",
        "ADDLINK",
        "DELETELINK",
        "DELETECHAIN"
      ],
      "vertexType": "MolecularFragment"
    },
    {
      "lstAPs": [
        {
          "id": 159639,
          "atomPositionNumber": 0,
          "atomPositionNumberInMol": 31,
          "apClass": {
            "rule": "SubRS",
            "subClass": 1,
            "bndTyp": "SINGLE"
          },
          "dirVec": {
            "x": 0.2865,
            "y": 0.3959,
            "z": -0.6387
          }
        }
      ],
      "lstSymAPs": [],
      "mol": {
        "atoms": [
          {
            "elSymbol": "C",
            "p3d": {
              "x": 0.3969,
              "y": -0.0496,
              "z": 0.8235
            }
          },
          {
            "elSymbol": "H",
            "p3d": {
              "x": -0.6146,
              "y": -0.163,
              "z": 1.2402
            }
          },
          {
            "elSymbol": "H",
            "p3d": {
              "x": 0.9335,
              "y": -0.9979,
              "z": 0.8998
            }
          },
          {
            "elSymbol": "H",
            "p3d": {
              "x": 0.9252,
              "y": 0.7237,
              "z": 1.3995
            }
          }
        ],
        "bonds": [
          {
            "atomIds": [
              0,
              1
            ],
            "bo": "SINGLE"
          },
          {
            "atomIds": [
              0,
              2
            ],
            "bo": "SINGLE"
          },
          {
            "atomIds": [
              0,
              3
            ],
            "bo": "SINGLE"
          }
        ]
      },
      "vertexId": 121511,
      "buildingBlockId": 30,
      "buildingBlockType": "FRAGMENT",
      "isRCV": false,
      "properties": {
        "ATTACHMENT_POINTS": "1#SubRS:1:SINGLE:0.2865%0.3959%-0.6387 "
      },
      "uniquefyingPropertyKeys": [],
      "allowedMutationTypes": [
        "DELETE",
        "EXTEND",
        "CHANGEBRANCH",
        "CHANGELINK",
        "ADDLINK",
        "DELETELINK",
        "DELETECHAIN"
      ],
      "vertexType": "MolecularFragment"
    }
  ],
  "gEdges": [
    {
      "srcAPID": 159592,
      "trgAPID": 159595,
      "bondType": "SINGLE"
    },
    {
      "srcAPID": 159594,
      "trgAPID": 159599,
      "bondType": "SINGLE"
    },
    {
      "srcAPID": 159593,
      "trgAPID": 159600,
      "bondType": "SINGLE"
    },
    {
      "srcAPID": 159596,
      "trgAPID": 159637,
      "bondType": "SINGLE"
    },
    {
      "srcAPID": 159598,
      "trgAPID": 159638,
      "bondType": "SINGLE"
    },
    {
      "srcAPID": 159597,
      "trgAPID": 159639,
      "bondType": "SINGLE"
    }
  ],
  "gRings": [],
  "symVertices": [
    {
      "symIds": [
        121656,
        121511
      ]
    }
  ]
}

> <SMILES>
[Pt](C#O)(OC([H])([H])[H])([P](N1C([H])([H])C([H])([H])C([H])([H])C([H])([H])C1([H])[H])(C([H])([H])[H])C([H])([H])[H])Cl

$$$$
