M00006764
  CDK     04222211093D

 44 46  0  0  0  0  0  0  0  0999 V2000
    2.2434    0.6193    0.6339 Pt  0  0  0  0  0  0  0  0  0  0  0  0
    4.1524    0.7818    0.9522 C   0  0  0  0  0  0  0  0  0  0  0  0
    5.2731    0.8905    1.1414 O   0  0  0  0  0  0  0  0  0  0  0  0
    2.7598    1.8070   -1.3195 S   0  0  0  0  0  0  0  0  0  0  0  0
    2.8104    0.3517   -2.4052 C   0  0  0  0  0  0  0  0  0  0  0  0
    1.9102    0.3084   -3.0278 H   0  0  0  0  0  0  0  0  0  0  0  0
    2.8807   -0.5719   -1.8179 H   0  0  0  0  0  0  0  0  0  0  0  0
    3.6857    0.4180   -3.0614 H   0  0  0  0  0  0  0  0  0  0  0  0
   -0.0245    0.5400    0.3183 P   0  0  0  0  0  0  0  0  0  0  0  0
   -0.7105    0.6636   -1.4011 C   0  0  0  0  0  0  0  0  0  0  0  0
   -0.4812    1.6216   -2.3705 C   0  0  0  0  0  0  0  0  0  0  0  0
   -1.1396    1.4808   -3.6067 C   0  0  0  0  0  0  0  0  0  0  0  0
   -1.9952    0.4032   -3.8352 C   0  0  0  0  0  0  0  0  0  0  0  0
   -2.2221   -0.5626   -2.8409 C   0  0  0  0  0  0  0  0  0  0  0  0
   -1.5773   -0.4341   -1.6108 C   0  0  0  0  0  0  0  0  0  0  0  0
   -1.7190   -1.3565   -0.4606 C   0  0  0  0  0  0  0  0  0  0  0  0
   -2.5160   -2.5010   -0.4296 C   0  0  0  0  0  0  0  0  0  0  0  0
   -2.5572   -3.2739    0.7423 C   0  0  0  0  0  0  0  0  0  0  0  0
   -1.8158   -2.9116    1.8670 C   0  0  0  0  0  0  0  0  0  0  0  0
   -1.0057   -1.7610    1.8487 C   0  0  0  0  0  0  0  0  0  0  0  0
   -0.9716   -1.0095    0.6891 C   0  0  0  0  0  0  0  0  0  0  0  0
    0.1970    2.4666   -2.2102 H   0  0  0  0  0  0  0  0  0  0  0  0
   -0.9725    2.2208   -4.3890 H   0  0  0  0  0  0  0  0  0  0  0  0
   -2.4973    0.3047   -4.7987 H   0  0  0  0  0  0  0  0  0  0  0  0
   -2.8929   -1.3969   -3.0356 H   0  0  0  0  0  0  0  0  0  0  0  0
   -3.1005   -2.7978   -1.2981 H   0  0  0  0  0  0  0  0  0  0  0  0
   -3.1792   -4.1698    0.7688 H   0  0  0  0  0  0  0  0  0  0  0  0
   -1.8588   -3.5219    2.7687 H   0  0  0  0  0  0  0  0  0  0  0  0
   -0.4232   -1.4911    2.7367 H   0  0  0  0  0  0  0  0  0  0  0  0
    0.4370    3.0176    1.4134 C   0  0  0  0  0  0  0  0  0  0  0  0
   -0.7058    2.0115    1.3281 C   0  0  0  0  0  0  0  0  0  0  0  0
   -1.1699    1.5427    2.6982 C   0  0  0  0  0  0  0  0  0  0  0  0
   -2.0060    0.8323    2.6530 H   0  0  0  0  0  0  0  0  0  0  0  0
   -1.5239    2.3994    3.2921 H   0  0  0  0  0  0  0  0  0  0  0  0
   -0.3670    1.0807    3.2957 H   0  0  0  0  0  0  0  0  0  0  0  0
    0.1175    3.9122    1.9699 H   0  0  0  0  0  0  0  0  0  0  0  0
    1.3226    2.6316    1.9550 H   0  0  0  0  0  0  0  0  0  0  0  0
    0.7802    3.3803    0.4309 H   0  0  0  0  0  0  0  0  0  0  0  0
   -1.5691    2.4585    0.7736 H   0  0  0  0  0  0  0  0  0  0  0  0
    2.2210   -0.5807    2.6486 S   0  0  0  0  0  0  0  0  0  0  0  0
    2.5063   -2.1964    1.8672 C   0  0  0  0  0  0  0  0  0  0  0  0
    3.3784   -2.6767    2.3252 H   0  0  0  0  0  0  0  0  0  0  0  0
    2.6886   -2.0842    0.7909 H   0  0  0  0  0  0  0  0  0  0  0  0
    1.6373   -2.8469    2.0098 H   0  0  0  0  0  0  0  0  0  0  0  0
  2  3  3  0  0  0  0
  1  2  1  0  0  0  0
  5  6  1  0  0  0  0
  5  7  1  0  0  0  0
  5  8  1  0  0  0  0
  4  5  1  0  0  0  0
  1  4  1  0  0  0  0
  9 10  1  0  0  0  0
 10 11  2  0  0  0  0
 11 12  1  0  0  0  0
 12 13  2  0  0  0  0
 13 14  1  0  0  0  0
 14 15  2  0  0  0  0
 15 10  1  0  0  0  0
 16 15  1  0  0  0  0
 16 21  1  0  0  0  0
 17 16  2  0  0  0  0
 18 17  1  0  0  0  0
 19 18  2  0  0  0  0
 20 19  1  0  0  0  0
 20 21  2  0  0  0  0
 21  9  1  0  0  0  0
 22 11  1  0  0  0  0
 23 12  1  0  0  0  0
 24 13  1  0  0  0  0
 25 14  1  0  0  0  0
 26 17  1  0  0  0  0
 27 18  1  0  0  0  0
 28 19  1  0  0  0  0
 29 20  1  0  0  0  0
  1  9  1  0  0  0  0
 30 31  1  0  0  0  0
 31 32  1  0  0  0  0
 32 33  1  0  0  0  0
 32 34  1  0  0  0  0
 32 35  1  0  0  0  0
 30 36  1  0  0  0  0
 30 37  1  0  0  0  0
 30 38  1  0  0  0  0
 31 39  1  0  0  0  0
  9 31  1  0  0  0  0
 41 42  1  0  0  0  0
 41 43  1  0  0  0  0
 41 44  1  0  0  0  0
 40 41  1  0  0  0  0
  1 40  1  0  0  0  0
M  END
> <PM6_ENERGY>
16.959

> <UID>
LMDDRBMRCBVBIS-YTISJZFRNA-L

> <FITNESS>
1.14174

> <GCODE>
7625

> <GraphENC>
7625 72_1_0,79_64_1,117_57_1,85_64_1,153685_33_1, 72_0_79_0_SINGLE_Xlig:0_Xlig:1,72_2_117_1_SINGLE_scaff:0_MPhosphole:1,72_1_85_0_SINGLE_Xlig:0_Xlig:1,117_0_153685_0_SINGLE_LPhospholeSubR:0_SubRM:1, 

> <GraphJson>
{
  "graphId": 7625,
  "gVertices": [
    {
      "lstAPs": [
        {
          "id": 201137,
          "atomPositionNumber": 0,
          "atomPositionNumberInMol": 0,
          "apClass": {
            "rule": "Xlig",
            "subClass": 0,
            "bndTyp": "SINGLE"
          },
          "dirVec": {
            "x": -2.3339,
            "y": -0.0087,
            "z": 0.8172
          }
        },
        {
          "id": 201138,
          "atomPositionNumber": 0,
          "atomPositionNumberInMol": 0,
          "apClass": {
            "rule": "Xlig",
            "subClass": 0,
            "bndTyp": "SINGLE"
          },
          "dirVec": {
            "x": 2.336,
            "y": -5.0E-4,
            "z": 0.829
          }
        },
        {
          "id": 201139,
          "atomPositionNumber": 0,
          "atomPositionNumberInMol": 0,
          "apClass": {
            "rule": "scaff",
            "subClass": 0,
            "bndTyp": "SINGLE"
          },
          "dirVec": {
            "x": -0.0095,
            "y": 0.0046,
            "z": -1.7113
          }
        }
      ],
      "lstSymAPs": [
        {
          "symIds": [
            0,
            1
          ]
        }
      ],
      "mol": {
        "atoms": [
          {
            "elSymbol": "Pt",
            "p3d": {
              "x": -0.0098,
              "y": 0.0049,
              "z": 0.6289
            }
          },
          {
            "elSymbol": "C",
            "p3d": {
              "x": -6.0E-4,
              "y": 0.0016,
              "z": 2.5609
            }
          },
          {
            "elSymbol": "O",
            "p3d": {
              "x": 0.0025,
              "y": -0.0041,
              "z": 3.6974
            }
          },
          {
            "elSymbol": "Du",
            "p3d": {
              "x": -0.007,
              "y": 1.0013,
              "z": 0.6372
            }
          },
          {
            "elSymbol": "Du",
            "p3d": {
              "x": -0.0014,
              "y": 0.9902,
              "z": 2.5698
            }
          }
        ],
        "bonds": [
          {
            "atomIds": [
              1,
              2
            ],
            "bo": "TRIPLE"
          },
          {
            "atomIds": [
              0,
              1
            ],
            "bo": "SINGLE"
          },
          {
            "atomIds": [
              3,
              0
            ],
            "bo": "SINGLE"
          },
          {
            "atomIds": [
              4,
              1
            ],
            "bo": "SINGLE"
          }
        ]
      },
      "vertexId": 72,
      "buildingBlockId": 0,
      "buildingBlockType": "SCAFFOLD",
      "isRCV": false,
      "properties": {
        "ATTACHMENT_POINTS": "1#Xlig:0:SINGLE:-2.3339%-0.0087%0.8172,Xlig:0:SINGLE:2.3360%-0.0005%0.8290,scaff:0:SINGLE:-0.0095%0.0046%-1.7113 "
      },
      "uniquefyingPropertyKeys": [],
      "allowedMutationTypes": [
        "DELETE",
        "EXTEND",
        "CHANGEBRANCH",
        "CHANGELINK",
        "ADDLINK",
        "DELETELINK",
        "DELETECHAIN"
      ],
      "vertexType": "MolecularFragment"
    },
    {
      "lstAPs": [
        {
          "id": 201140,
          "atomPositionNumber": 0,
          "atomPositionNumberInMol": 5,
          "apClass": {
            "rule": "Xlig",
            "subClass": 1,
            "bndTyp": "SINGLE"
          },
          "dirVec": {
            "x": -0.102,
            "y": 0.0185,
            "z": -1.0265
          }
        }
      ],
      "lstSymAPs": [],
      "mol": {
        "atoms": [
          {
            "elSymbol": "S",
            "p3d": {
              "x": -0.3267,
              "y": 2.3403,
              "z": -1.0022
            }
          },
          {
            "elSymbol": "C",
            "p3d": {
              "x": -0.626,
              "y": 2.4866,
              "z": 0.7805
            }
          },
          {
            "elSymbol": "H",
            "p3d": {
              "x": 0.1766,
              "y": 3.089,
              "z": 1.2414
            }
          },
          {
            "elSymbol": "H",
            "p3d": {
              "x": -0.651,
              "y": 1.5065,
              "z": 1.2643
            }
          },
          {
            "elSymbol": "H",
            "p3d": {
              "x": -1.5658,
              "y": 2.981,
              "z": 0.9515
            }
          }
        ],
        "bonds": [
          {
            "atomIds": [
              1,
              2
            ],
            "bo": "SINGLE"
          },
          {
            "atomIds": [
              1,
              3
            ],
            "bo": "SINGLE"
          },
          {
            "atomIds": [
              1,
              4
            ],
            "bo": "SINGLE"
          },
          {
            "atomIds": [
              0,
              1
            ],
            "bo": "SINGLE"
          }
        ]
      },
      "vertexId": 79,
      "buildingBlockId": 63,
      "buildingBlockType": "FRAGMENT",
      "isRCV": false,
      "properties": {
        "ATTACHMENT_POINTS": "1#Xlig:1:SINGLE:-0.1020%0.0185%-1.0265 "
      },
      "uniquefyingPropertyKeys": [],
      "allowedMutationTypes": [
        "DELETE",
        "EXTEND",
        "CHANGEBRANCH",
        "CHANGELINK",
        "ADDLINK",
        "DELETELINK",
        "DELETECHAIN"
      ],
      "vertexType": "MolecularFragment"
    },
    {
      "lstAPs": [
        {
          "id": 201141,
          "atomPositionNumber": 0,
          "atomPositionNumberInMol": 10,
          "apClass": {
            "rule": "LPhospholeSubR",
            "subClass": 0,
            "bndTyp": "SINGLE"
          },
          "dirVec": {
            "x": 8.2979,
            "y": 3.6599,
            "z": 9.907
          }
        },
        {
          "id": 201142,
          "atomPositionNumber": 0,
          "atomPositionNumberInMol": 10,
          "apClass": {
            "rule": "MPhosphole",
            "subClass": 1,
            "bndTyp": "SINGLE"
          },
          "dirVec": {
            "x": 8.1114,
            "y": 1.563,
            "z": 6.7555
          }
        }
      ],
      "lstSymAPs": [],
      "mol": {
        "atoms": [
          {
            "elSymbol": "P",
            "p3d": {
              "x": 7.3852,
              "y": 3.3353,
              "z": 8.349
            }
          },
          {
            "elSymbol": "C",
            "p3d": {
              "x": 7.2878,
              "y": 5.0039,
              "z": 7.6394
            }
          },
          {
            "elSymbol": "C",
            "p3d": {
              "x": 8.2867,
              "y": 5.7253,
              "z": 7.0209
            }
          },
          {
            "elSymbol": "C",
            "p3d": {
              "x": 7.9761,
              "y": 6.9837,
              "z": 6.5025
            }
          },
          {
            "elSymbol": "C",
            "p3d": {
              "x": 6.7261,
              "y": 7.4825,
              "z": 6.6338
            }
          },
          {
            "elSymbol": "C",
            "p3d": {
              "x": 5.742,
              "y": 6.7839,
              "z": 7.2506
            }
          },
          {
            "elSymbol": "C",
            "p3d": {
              "x": 6.0001,
              "y": 5.545,
              "z": 7.7891
            }
          },
          {
            "elSymbol": "C",
            "p3d": {
              "x": 5.0707,
              "y": 4.6709,
              "z": 8.5094
            }
          },
          {
            "elSymbol": "C",
            "p3d": {
              "x": 3.7379,
              "y": 4.9022,
              "z": 8.8416
            }
          },
          {
            "elSymbol": "C",
            "p3d": {
              "x": 3.0581,
              "y": 3.9613,
              "z": 9.5076
            }
          },
          {
            "elSymbol": "C",
            "p3d": {
              "x": 3.592,
              "y": 2.7603,
              "z": 9.8266
            }
          },
          {
            "elSymbol": "C",
            "p3d": {
              "x": 4.9369,
              "y": 2.494,
              "z": 9.5465
            }
          },
          {
            "elSymbol": "C",
            "p3d": {
              "x": 5.6287,
              "y": 3.4387,
              "z": 8.8671
            }
          },
          {
            "elSymbol": "H",
            "p3d": {
              "x": 9.3019,
              "y": 5.3077,
              "z": 6.9257
            }
          },
          {
            "elSymbol": "H",
            "p3d": {
              "x": 8.7469,
              "y": 7.56,
              "z": 6.0141
            }
          },
          {
            "elSymbol": "H",
            "p3d": {
              "x": 6.5026,
              "y": 8.4647,
              "z": 6.2206
            }
          },
          {
            "elSymbol": "H",
            "p3d": {
              "x": 4.7435,
              "y": 7.2295,
              "z": 7.3444
            }
          },
          {
            "elSymbol": "H",
            "p3d": {
              "x": 3.2597,
              "y": 5.842,
              "z": 8.5703
            }
          },
          {
            "elSymbol": "H",
            "p3d": {
              "x": 2.0248,
              "y": 4.1573,
              "z": 9.8149
            }
          },
          {
            "elSymbol": "H",
            "p3d": {
              "x": 2.9835,
              "y": 2.0,
              "z": 10.2956
            }
          },
          {
            "elSymbol": "H",
            "p3d": {
              "x": 5.394,
              "y": 1.5535,
              "z": 9.8429
            }
          }
        ],
        "bonds": [
          {
            "atomIds": [
              0,
              1
            ],
            "bo": "SINGLE"
          },
          {
            "atomIds": [
              1,
              2
            ],
            "bo": "DOUBLE"
          },
          {
            "atomIds": [
              2,
              3
            ],
            "bo": "SINGLE"
          },
          {
            "atomIds": [
              3,
              4
            ],
            "bo": "DOUBLE"
          },
          {
            "atomIds": [
              4,
              5
            ],
            "bo": "SINGLE"
          },
          {
            "atomIds": [
              5,
              6
            ],
            "bo": "DOUBLE"
          },
          {
            "atomIds": [
              6,
              1
            ],
            "bo": "SINGLE"
          },
          {
            "atomIds": [
              7,
              6
            ],
            "bo": "SINGLE"
          },
          {
            "atomIds": [
              7,
              12
            ],
            "bo": "SINGLE"
          },
          {
            "atomIds": [
              8,
              7
            ],
            "bo": "DOUBLE"
          },
          {
            "atomIds": [
              9,
              8
            ],
            "bo": "SINGLE"
          },
          {
            "atomIds": [
              10,
              9
            ],
            "bo": "DOUBLE"
          },
          {
            "atomIds": [
              11,
              10
            ],
            "bo": "SINGLE"
          },
          {
            "atomIds": [
              11,
              12
            ],
            "bo": "DOUBLE"
          },
          {
            "atomIds": [
              12,
              0
            ],
            "bo": "SINGLE"
          },
          {
            "atomIds": [
              13,
              2
            ],
            "bo": "SINGLE"
          },
          {
            "atomIds": [
              14,
              3
            ],
            "bo": "SINGLE"
          },
          {
            "atomIds": [
              15,
              4
            ],
            "bo": "SINGLE"
          },
          {
            "atomIds": [
              16,
              5
            ],
            "bo": "SINGLE"
          },
          {
            "atomIds": [
              17,
              8
            ],
            "bo": "SINGLE"
          },
          {
            "atomIds": [
              18,
              9
            ],
            "bo": "SINGLE"
          },
          {
            "atomIds": [
              19,
              10
            ],
            "bo": "SINGLE"
          },
          {
            "atomIds": [
              20,
              11
            ],
            "bo": "SINGLE"
          }
        ]
      },
      "vertexId": 117,
      "buildingBlockId": 56,
      "buildingBlockType": "FRAGMENT",
      "isRCV": false,
      "properties": {
        "ATTACHMENT_POINTS": "1#LPhospholeSubR:0:SINGLE:8.2979%3.6599%9.9070,MPhosphole:1:SINGLE:8.1114%1.5630%6.7555 "
      },
      "uniquefyingPropertyKeys": [],
      "allowedMutationTypes": [
        "DELETE",
        "EXTEND",
        "CHANGEBRANCH",
        "CHANGELINK",
        "ADDLINK",
        "DELETELINK",
        "DELETECHAIN"
      ],
      "vertexType": "MolecularFragment"
    },
    {
      "lstAPs": [
        {
          "id": 201143,
          "atomPositionNumber": 0,
          "atomPositionNumberInMol": 41,
          "apClass": {
            "rule": "Xlig",
            "subClass": 1,
            "bndTyp": "SINGLE"
          },
          "dirVec": {
            "x": -0.102,
            "y": 0.0185,
            "z": -1.0265
          }
        }
      ],
      "lstSymAPs": [],
      "mol": {
        "atoms": [
          {
            "elSymbol": "S",
            "p3d": {
              "x": -0.3267,
              "y": 2.3403,
              "z": -1.0022
            }
          },
          {
            "elSymbol": "C",
            "p3d": {
              "x": -0.626,
              "y": 2.4866,
              "z": 0.7805
            }
          },
          {
            "elSymbol": "H",
            "p3d": {
              "x": 0.1766,
              "y": 3.089,
              "z": 1.2414
            }
          },
          {
            "elSymbol": "H",
            "p3d": {
              "x": -0.651,
              "y": 1.5065,
              "z": 1.2643
            }
          },
          {
            "elSymbol": "H",
            "p3d": {
              "x": -1.5658,
              "y": 2.981,
              "z": 0.9515
            }
          }
        ],
        "bonds": [
          {
            "atomIds": [
              1,
              2
            ],
            "bo": "SINGLE"
          },
          {
            "atomIds": [
              1,
              3
            ],
            "bo": "SINGLE"
          },
          {
            "atomIds": [
              1,
              4
            ],
            "bo": "SINGLE"
          },
          {
            "atomIds": [
              0,
              1
            ],
            "bo": "SINGLE"
          }
        ]
      },
      "vertexId": 85,
      "buildingBlockId": 63,
      "buildingBlockType": "FRAGMENT",
      "isRCV": false,
      "properties": {
        "ATTACHMENT_POINTS": "1#Xlig:1:SINGLE:-0.1020%0.0185%-1.0265 "
      },
      "uniquefyingPropertyKeys": [],
      "allowedMutationTypes": [
        "DELETE",
        "EXTEND",
        "CHANGEBRANCH",
        "CHANGELINK",
        "ADDLINK",
        "DELETELINK",
        "DELETECHAIN"
      ],
      "vertexType": "MolecularFragment"
    },
    {
      "lstAPs": [
        {
          "id": 201168,
          "atomPositionNumber": 1,
          "atomPositionNumberInMol": 32,
          "apClass": {
            "rule": "SubRM",
            "subClass": 1,
            "bndTyp": "SINGLE"
          },
          "dirVec": {
            "x": 0.2868,
            "y": 0.385,
            "z": -0.643
          }
        }
      ],
      "lstSymAPs": [],
      "mol": {
        "atoms": [
          {
            "elSymbol": "C",
            "p3d": {
              "x": 1.141,
              "y": 1.0262,
              "z": 1.6347
            }
          },
          {
            "elSymbol": "C",
            "p3d": {
              "x": 0.3967,
              "y": -0.0479,
              "z": 0.8227
            }
          },
          {
            "elSymbol": "C",
            "p3d": {
              "x": 1.1459,
              "y": -1.371,
              "z": 0.9201
            }
          },
          {
            "elSymbol": "H",
            "p3d": {
              "x": 2.1461,
              "y": -1.2583,
              "z": 0.4976
            }
          },
          {
            "elSymbol": "H",
            "p3d": {
              "x": 0.6013,
              "y": -2.1408,
              "z": 0.3461
            }
          },
          {
            "elSymbol": "H",
            "p3d": {
              "x": 1.2113,
              "y": -1.6946,
              "z": 1.9559
            }
          },
          {
            "elSymbol": "H",
            "p3d": {
              "x": 2.1541,
              "y": 1.1435,
              "z": 1.2119
            }
          },
          {
            "elSymbol": "H",
            "p3d": {
              "x": 0.6143,
              "y": 1.976,
              "z": 1.5626
            }
          },
          {
            "elSymbol": "H",
            "p3d": {
              "x": 1.2058,
              "y": 0.7088,
              "z": 2.6868
            }
          },
          {
            "elSymbol": "H",
            "p3d": {
              "x": -0.6215,
              "y": -0.1789,
              "z": 1.2377
            }
          }
        ],
        "bonds": [
          {
            "atomIds": [
              0,
              1
            ],
            "bo": "SINGLE"
          },
          {
            "atomIds": [
              1,
              2
            ],
            "bo": "SINGLE"
          },
          {
            "atomIds": [
              2,
              3
            ],
            "bo": "SINGLE"
          },
          {
            "atomIds": [
              2,
              4
            ],
            "bo": "SINGLE"
          },
          {
            "atomIds": [
              2,
              5
            ],
            "bo": "SINGLE"
          },
          {
            "atomIds": [
              0,
              6
            ],
            "bo": "SINGLE"
          },
          {
            "atomIds": [
              0,
              7
            ],
            "bo": "SINGLE"
          },
          {
            "atomIds": [
              0,
              8
            ],
            "bo": "SINGLE"
          },
          {
            "atomIds": [
              1,
              9
            ],
            "bo": "SINGLE"
          }
        ]
      },
      "vertexId": 153685,
      "buildingBlockId": 32,
      "buildingBlockType": "FRAGMENT",
      "isRCV": false,
      "properties": {
        "ATTACHMENT_POINTS": "2#SubRM:1:SINGLE:0.2868%0.3850%-0.6430 "
      },
      "uniquefyingPropertyKeys": [],
      "allowedMutationTypes": [
        "DELETE",
        "EXTEND",
        "CHANGEBRANCH",
        "CHANGELINK",
        "ADDLINK",
        "DELETELINK",
        "DELETECHAIN"
      ],
      "vertexType": "MolecularFragment"
    }
  ],
  "gEdges": [
    {
      "srcAPID": 201137,
      "trgAPID": 201140,
      "bondType": "SINGLE"
    },
    {
      "srcAPID": 201139,
      "trgAPID": 201142,
      "bondType": "SINGLE"
    },
    {
      "srcAPID": 201138,
      "trgAPID": 201143,
      "bondType": "SINGLE"
    },
    {
      "srcAPID": 201141,
      "trgAPID": 201168,
      "bondType": "SINGLE"
    }
  ],
  "gRings": [],
  "symVertices": []
}

> <SMILES>
[Pt](C#O)(SC([H])([H])[H])([P]1(C2=C(C(=C(C(=C2C=3C1=C(C(=C(C3[H])[H])[H])[H])[H])[H])[H])[H])C(C([H])([H])[H])(C([H])([H])[H])[H])SC([H])([H])[H]

$$$$
