M00004423
  CDK     04222210173D

 55 57  0  0  0  0  0  0  0  0999 V2000
   -2.6012    0.0546   -0.0070 Pt  0  0  0  0  0  0  0  0  0  0  0  0
   -4.5312    0.0386    0.1812 C   0  0  0  0  0  0  0  0  0  0  0  0
   -5.6674    0.0146    0.3067 O   0  0  0  0  0  0  0  0  0  0  0  0
   -2.6443    2.1192    0.1254 O   0  0  0  0  0  0  0  0  0  0  0  0
   -2.8714    2.6895   -1.1397 C   0  0  0  0  0  0  0  0  0  0  0  0
   -3.1644    3.7328   -0.9535 H   0  0  0  0  0  0  0  0  0  0  0  0
   -3.6795    2.1576   -1.6582 H   0  0  0  0  0  0  0  0  0  0  0  0
   -1.9489    2.6559   -1.7346 H   0  0  0  0  0  0  0  0  0  0  0  0
   -0.3214   -0.0101   -0.1318 P   0  0  0  0  0  0  0  0  0  0  0  0
    0.5141   -0.8835   -1.5618 C   0  0  0  0  0  0  0  0  0  0  0  0
    1.3280    0.0325   -2.1092 C   0  0  0  0  0  0  0  0  0  0  0  0
    2.2594   -0.0171   -3.2760 C   0  0  0  0  0  0  0  0  0  0  0  0
    1.7172   -0.2823   -4.2044 H   0  0  0  0  0  0  0  0  0  0  0  0
    3.0286   -0.8009   -3.1400 H   0  0  0  0  0  0  0  0  0  0  0  0
    2.8979    1.3900   -3.3784 C   0  0  0  0  0  0  0  0  0  0  0  0
    2.6885    1.8394   -4.3637 H   0  0  0  0  0  0  0  0  0  0  0  0
    3.9955    1.3255   -3.2930 H   0  0  0  0  0  0  0  0  0  0  0  0
    2.3134    2.2685   -2.2447 C   0  0  0  0  0  0  0  0  0  0  0  0
    3.1099    2.6490   -1.5773 H   0  0  0  0  0  0  0  0  0  0  0  0
    1.8037    3.1633   -2.6506 H   0  0  0  0  0  0  0  0  0  0  0  0
    1.3570    1.3988   -1.4962 C   0  0  0  0  0  0  0  0  0  0  0  0
    0.5570    1.6208   -0.4443 C   0  0  0  0  0  0  0  0  0  0  0  0
    0.2963   -0.6451    1.5516 C   0  0  0  0  0  0  0  0  0  0  0  0
   -0.3745   -0.7857    3.9691 C   0  0  0  0  0  0  0  0  0  0  0  0
    1.0792   -2.5871    2.9319 C   0  0  0  0  0  0  0  0  0  0  0  0
    0.0041   -2.2732    3.9815 C   0  0  0  0  0  0  0  0  0  0  0  0
    0.6354   -2.1386    1.5277 C   0  0  0  0  0  0  0  0  0  0  0  0
   -0.8174   -0.3363    2.5658 C   0  0  0  0  0  0  0  0  0  0  0  0
    0.4829   -0.1749    4.3091 H   0  0  0  0  0  0  0  0  0  0  0  0
    2.0297   -2.0916    3.2055 H   0  0  0  0  0  0  0  0  0  0  0  0
   -0.8967   -2.8887    3.7858 H   0  0  0  0  0  0  0  0  0  0  0  0
   -0.2417   -2.7523    1.2241 H   0  0  0  0  0  0  0  0  0  0  0  0
   -1.7647   -0.8681    2.3043 H   0  0  0  0  0  0  0  0  0  0  0  0
    1.2189   -0.0703    1.8240 H   0  0  0  0  0  0  0  0  0  0  0  0
   -1.1896   -0.5985    4.6938 H   0  0  0  0  0  0  0  0  0  0  0  0
    1.2899   -3.6734    2.9238 H   0  0  0  0  0  0  0  0  0  0  0  0
    0.3606   -2.5644    4.9868 H   0  0  0  0  0  0  0  0  0  0  0  0
    1.4421   -2.3611    0.8024 H   0  0  0  0  0  0  0  0  0  0  0  0
   -1.0684    0.7468    2.5900 H   0  0  0  0  0  0  0  0  0  0  0  0
   -0.8879   -2.2925   -3.0502 C   0  0  0  0  0  0  0  0  0  0  0  0
    0.2230   -2.2702   -1.9966 C   0  0  0  0  0  0  0  0  0  0  0  0
   -0.6286   -1.6956   -3.9301 H   0  0  0  0  0  0  0  0  0  0  0  0
   -1.0887   -3.3185   -3.3824 H   0  0  0  0  0  0  0  0  0  0  0  0
   -1.8336   -1.9018   -2.6487 H   0  0  0  0  0  0  0  0  0  0  0  0
   -0.0671   -2.9301   -1.1478 H   0  0  0  0  0  0  0  0  0  0  0  0
    1.1446   -2.7297   -2.4174 H   0  0  0  0  0  0  0  0  0  0  0  0
    1.2276    2.8731    1.6122 C   0  0  0  0  0  0  0  0  0  0  0  0
    0.3341    2.8359    0.3717 C   0  0  0  0  0  0  0  0  0  0  0  0
    0.9417    2.1127    2.3482 H   0  0  0  0  0  0  0  0  0  0  0  0
    2.2812    2.7140    1.3583 H   0  0  0  0  0  0  0  0  0  0  0  0
    1.1511    3.8458    2.1138 H   0  0  0  0  0  0  0  0  0  0  0  0
   -0.7462    2.9234    0.6719 H   0  0  0  0  0  0  0  0  0  0  0  0
    0.5242    3.7388   -0.2495 H   0  0  0  0  0  0  0  0  0  0  0  0
   -2.5999   -1.9214   -0.0379 C   0  0  0  0  0  0  0  0  0  0  0  0
   -2.6019   -3.0779   -0.0410 N   0  0  0  0  0  0  0  0  0  0  0  0
  2  3  3  0  0  0  0
  1  2  1  0  0  0  0
  5  6  1  0  0  0  0
  5  7  1  0  0  0  0
  5  8  1  0  0  0  0
  4  5  1  0  0  0  0
  1  4  1  0  0  0  0
 10  9  1  0  0  0  0
 11 10  2  0  0  0  0
 12 11  1  0  0  0  0
 13 12  1  0  0  0  0
 14 12  1  0  0  0  0
 15 12  1  0  0  0  0
 16 15  1  0  0  0  0
 17 15  1  0  0  0  0
 18 15  1  0  0  0  0
 18 21  1  0  0  0  0
 19 18  1  0  0  0  0
 20 18  1  0  0  0  0
 21 11  1  0  0  0  0
 21 22  2  0  0  0  0
 22  9  1  0  0  0  0
  1  9  1  0  0  0  0
 23 34  1  0  0  0  0
 23 27  1  0  0  0  0
 23 28  1  0  0  0  0
 24 29  1  0  0  0  0
 24 35  1  0  0  0  0
 24 26  1  0  0  0  0
 24 28  1  0  0  0  0
 25 30  1  0  0  0  0
 25 36  1  0  0  0  0
 25 27  1  0  0  0  0
 25 26  1  0  0  0  0
 26 31  1  0  0  0  0
 26 37  1  0  0  0  0
 27 32  1  0  0  0  0
 27 38  1  0  0  0  0
 28 33  1  0  0  0  0
 28 39  1  0  0  0  0
  9 23  1  0  0  0  0
 40 41  1  0  0  0  0
 40 42  1  0  0  0  0
 40 43  1  0  0  0  0
 40 44  1  0  0  0  0
 41 45  1  0  0  0  0
 41 46  1  0  0  0  0
 10 41  1  0  0  0  0
 47 48  1  0  0  0  0
 47 49  1  0  0  0  0
 47 50  1  0  0  0  0
 47 51  1  0  0  0  0
 48 52  1  0  0  0  0
 48 53  1  0  0  0  0
 22 48  1  0  0  0  0
 54 55  3  0  0  0  0
  1 54  1  0  0  0  0
M  END
> <PM6_ENERGY>
-252.518

> <UID>
KGLJHCKEACNPTO-GZMWIPBZNA-N

> <FITNESS>
1.14336

> <GCODE>
5191

> <GraphENC>
5191 72_1_0,80_65_1,114_54_1,87_66_1,101162_35_1,101168_32_1,101509_32_1, 72_0_80_0_SINGLE_Xlig:0_Xlig:1,72_2_114_1_SINGLE_scaff:0_MPhosphole:1,72_1_87_0_SINGLE_Xlig:0_Xlig:1,114_0_101162_0_SINGLE_LPhospholeSubR:0_SubRM:1,114_2_101168_0_SINGLE_LPhospholeSubAlpha:0_SubRS:1,114_3_101509_0_SINGLE_LPhospholeSubAlpha:0_SubRS:1, SymmetricSet [symIds=[101168, 101509]] 

> <GraphJson>
{
  "graphId": 5191,
  "gVertices": [
    {
      "lstAPs": [
        {
          "id": 133535,
          "atomPositionNumber": 0,
          "atomPositionNumberInMol": 0,
          "apClass": {
            "rule": "Xlig",
            "subClass": 0,
            "bndTyp": "SINGLE"
          },
          "dirVec": {
            "x": -2.3339,
            "y": -0.0087,
            "z": 0.8172
          }
        },
        {
          "id": 133536,
          "atomPositionNumber": 0,
          "atomPositionNumberInMol": 0,
          "apClass": {
            "rule": "Xlig",
            "subClass": 0,
            "bndTyp": "SINGLE"
          },
          "dirVec": {
            "x": 2.336,
            "y": -5.0E-4,
            "z": 0.829
          }
        },
        {
          "id": 133537,
          "atomPositionNumber": 0,
          "atomPositionNumberInMol": 0,
          "apClass": {
            "rule": "scaff",
            "subClass": 0,
            "bndTyp": "SINGLE"
          },
          "dirVec": {
            "x": -0.0095,
            "y": 0.0046,
            "z": -1.7113
          }
        }
      ],
      "lstSymAPs": [
        {
          "symIds": [
            0,
            1
          ]
        }
      ],
      "mol": {
        "atoms": [
          {
            "elSymbol": "Pt",
            "p3d": {
              "x": -0.0098,
              "y": 0.0049,
              "z": 0.6289
            }
          },
          {
            "elSymbol": "C",
            "p3d": {
              "x": -6.0E-4,
              "y": 0.0016,
              "z": 2.5609
            }
          },
          {
            "elSymbol": "O",
            "p3d": {
              "x": 0.0025,
              "y": -0.0041,
              "z": 3.6974
            }
          },
          {
            "elSymbol": "Du",
            "p3d": {
              "x": -0.007,
              "y": 1.0013,
              "z": 0.6372
            }
          },
          {
            "elSymbol": "Du",
            "p3d": {
              "x": -0.0014,
              "y": 0.9902,
              "z": 2.5698
            }
          }
        ],
        "bonds": [
          {
            "atomIds": [
              1,
              2
            ],
            "bo": "TRIPLE"
          },
          {
            "atomIds": [
              0,
              1
            ],
            "bo": "SINGLE"
          },
          {
            "atomIds": [
              3,
              0
            ],
            "bo": "SINGLE"
          },
          {
            "atomIds": [
              4,
              1
            ],
            "bo": "SINGLE"
          }
        ]
      },
      "vertexId": 72,
      "buildingBlockId": 0,
      "buildingBlockType": "SCAFFOLD",
      "isRCV": false,
      "properties": {
        "ATTACHMENT_POINTS": "1#Xlig:0:SINGLE:-2.3339%-0.0087%0.8172,Xlig:0:SINGLE:2.3360%-0.0005%0.8290,scaff:0:SINGLE:-0.0095%0.0046%-1.7113 "
      },
      "uniquefyingPropertyKeys": [],
      "allowedMutationTypes": [
        "DELETE",
        "EXTEND",
        "CHANGEBRANCH",
        "CHANGELINK",
        "ADDLINK",
        "DELETELINK",
        "DELETECHAIN"
      ],
      "vertexType": "MolecularFragment"
    },
    {
      "lstAPs": [
        {
          "id": 133538,
          "atomPositionNumber": 0,
          "atomPositionNumberInMol": 5,
          "apClass": {
            "rule": "Xlig",
            "subClass": 1,
            "bndTyp": "SINGLE"
          },
          "dirVec": {
            "x": -0.1753,
            "y": 0.0948,
            "z": -0.4464
          }
        }
      ],
      "lstSymAPs": [],
      "mol": {
        "atoms": [
          {
            "elSymbol": "O",
            "p3d": {
              "x": -0.3534,
              "y": 2.1044,
              "z": -0.7339
            }
          },
          {
            "elSymbol": "C",
            "p3d": {
              "x": -0.5345,
              "y": 2.7646,
              "z": 0.4801
            }
          },
          {
            "elSymbol": "H",
            "p3d": {
              "x": -0.3728,
              "y": 3.8337,
              "z": 0.2724
            }
          },
          {
            "elSymbol": "H",
            "p3d": {
              "x": 0.1816,
              "y": 2.4161,
              "z": 1.2384
            }
          },
          {
            "elSymbol": "H",
            "p3d": {
              "x": -1.553,
              "y": 2.6149,
              "z": 0.8489
            }
          }
        ],
        "bonds": [
          {
            "atomIds": [
              1,
              2
            ],
            "bo": "SINGLE"
          },
          {
            "atomIds": [
              1,
              3
            ],
            "bo": "SINGLE"
          },
          {
            "atomIds": [
              1,
              4
            ],
            "bo": "SINGLE"
          },
          {
            "atomIds": [
              0,
              1
            ],
            "bo": "SINGLE"
          }
        ]
      },
      "vertexId": 80,
      "buildingBlockId": 64,
      "buildingBlockType": "FRAGMENT",
      "isRCV": false,
      "properties": {
        "ATTACHMENT_POINTS": "1#Xlig:1:SINGLE:-0.1753%0.0948%-0.4464 "
      },
      "uniquefyingPropertyKeys": [],
      "allowedMutationTypes": [
        "DELETE",
        "EXTEND",
        "CHANGEBRANCH",
        "CHANGELINK",
        "ADDLINK",
        "DELETELINK",
        "DELETECHAIN"
      ],
      "vertexType": "MolecularFragment"
    },
    {
      "lstAPs": [
        {
          "id": 133539,
          "atomPositionNumber": 0,
          "atomPositionNumberInMol": 10,
          "apClass": {
            "rule": "LPhospholeSubR",
            "subClass": 0,
            "bndTyp": "SINGLE"
          },
          "dirVec": {
            "x": 2.845,
            "y": 3.6959,
            "z": 7.5989
          }
        },
        {
          "id": 133540,
          "atomPositionNumber": 0,
          "atomPositionNumberInMol": 10,
          "apClass": {
            "rule": "MPhosphole",
            "subClass": 1,
            "bndTyp": "SINGLE"
          },
          "dirVec": {
            "x": 5.4116,
            "y": 3.8914,
            "z": 5.1007
          }
        },
        {
          "id": 133541,
          "atomPositionNumber": 1,
          "atomPositionNumberInMol": 11,
          "apClass": {
            "rule": "LPhospholeSubAlpha",
            "subClass": 0,
            "bndTyp": "SINGLE"
          },
          "dirVec": {
            "x": 1.4479,
            "y": 4.7532,
            "z": 4.2328
          }
        },
        {
          "id": 133542,
          "atomPositionNumber": 13,
          "atomPositionNumberInMol": 23,
          "apClass": {
            "rule": "LPhospholeSubAlpha",
            "subClass": 0,
            "bndTyp": "SINGLE"
          },
          "dirVec": {
            "x": 3.9785,
            "y": 0.2873,
            "z": 6.6145
          }
        }
      ],
      "lstSymAPs": [
        {
          "symIds": [
            2,
            3
          ]
        }
      ],
      "mol": {
        "atoms": [
          {
            "elSymbol": "P",
            "p3d": {
              "x": 3.3327,
              "y": 3.1661,
              "z": 5.9169
            }
          },
          {
            "elSymbol": "C",
            "p3d": {
              "x": 1.8776,
              "y": 3.4521,
              "z": 4.8835
            }
          },
          {
            "elSymbol": "C",
            "p3d": {
              "x": 1.2681,
              "y": 2.2569,
              "z": 4.7213
            }
          },
          {
            "elSymbol": "C",
            "p3d": {
              "x": 0.0419,
              "y": 1.8038,
              "z": 3.9627
            }
          },
          {
            "elSymbol": "H",
            "p3d": {
              "x": 0.2288,
              "y": 1.7787,
              "z": 2.8891
            }
          },
          {
            "elSymbol": "H",
            "p3d": {
              "x": -0.8031,
              "y": 2.4636,
              "z": 4.164
            }
          },
          {
            "elSymbol": "C",
            "p3d": {
              "x": -0.2053,
              "y": 0.3988,
              "z": 4.5209
            }
          },
          {
            "elSymbol": "H",
            "p3d": {
              "x": -0.5881,
              "y": -0.2518,
              "z": 3.7305
            }
          },
          {
            "elSymbol": "H",
            "p3d": {
              "x": -0.9454,
              "y": 0.4356,
              "z": 5.3348
            }
          },
          {
            "elSymbol": "C",
            "p3d": {
              "x": 1.1426,
              "y": -0.1318,
              "z": 5.057
            }
          },
          {
            "elSymbol": "H",
            "p3d": {
              "x": 0.9989,
              "y": -0.7298,
              "z": 5.9471
            }
          },
          {
            "elSymbol": "H",
            "p3d": {
              "x": 1.6318,
              "y": -0.7488,
              "z": 4.3049
            }
          },
          {
            "elSymbol": "C",
            "p3d": {
              "x": 1.9182,
              "y": 1.1071,
              "z": 5.3354
            }
          },
          {
            "elSymbol": "C",
            "p3d": {
              "x": 3.0763,
              "y": 1.3393,
              "z": 5.9864
            }
          }
        ],
        "bonds": [
          {
            "atomIds": [
              1,
              0
            ],
            "bo": "SINGLE"
          },
          {
            "atomIds": [
              2,
              1
            ],
            "bo": "DOUBLE"
          },
          {
            "atomIds": [
              3,
              2
            ],
            "bo": "SINGLE"
          },
          {
            "atomIds": [
              4,
              3
            ],
            "bo": "SINGLE"
          },
          {
            "atomIds": [
              5,
              3
            ],
            "bo": "SINGLE"
          },
          {
            "atomIds": [
              6,
              3
            ],
            "bo": "SINGLE"
          },
          {
            "atomIds": [
              7,
              6
            ],
            "bo": "SINGLE"
          },
          {
            "atomIds": [
              8,
              6
            ],
            "bo": "SINGLE"
          },
          {
            "atomIds": [
              9,
              6
            ],
            "bo": "SINGLE"
          },
          {
            "atomIds": [
              9,
              12
            ],
            "bo": "SINGLE"
          },
          {
            "atomIds": [
              10,
              9
            ],
            "bo": "SINGLE"
          },
          {
            "atomIds": [
              11,
              9
            ],
            "bo": "SINGLE"
          },
          {
            "atomIds": [
              12,
              2
            ],
            "bo": "SINGLE"
          },
          {
            "atomIds": [
              12,
              13
            ],
            "bo": "DOUBLE"
          },
          {
            "atomIds": [
              13,
              0
            ],
            "bo": "SINGLE"
          }
        ]
      },
      "vertexId": 114,
      "buildingBlockId": 53,
      "buildingBlockType": "FRAGMENT",
      "isRCV": false,
      "properties": {
        "ATTACHMENT_POINTS": "1#LPhospholeSubR:0:SINGLE:2.8450%3.6959%7.5989,MPhosphole:1:SINGLE:5.4116%3.8914%5.1007 2#LPhospholeSubAlpha:0:SINGLE:1.4479%4.7532%4.2328 14#LPhospholeSubAlpha:0:SINGLE:3.9785%0.2873%6.6145 "
      },
      "uniquefyingPropertyKeys": [],
      "allowedMutationTypes": [
        "DELETE",
        "EXTEND",
        "CHANGEBRANCH",
        "CHANGELINK",
        "ADDLINK",
        "DELETELINK",
        "DELETECHAIN"
      ],
      "vertexType": "MolecularFragment"
    },
    {
      "lstAPs": [
        {
          "id": 133543,
          "atomPositionNumber": 0,
          "atomPositionNumberInMol": 55,
          "apClass": {
            "rule": "Xlig",
            "subClass": 1,
            "bndTyp": "SINGLE"
          },
          "dirVec": {
            "x": 0.0192,
            "y": -0.0048,
            "z": -0.5645
          }
        }
      ],
      "lstSymAPs": [],
      "mol": {
        "atoms": [
          {
            "elSymbol": "C",
            "p3d": {
              "x": -1.967,
              "y": -0.0075,
              "z": -0.4937
            }
          },
          {
            "elSymbol": "N",
            "p3d": {
              "x": -3.1263,
              "y": -0.0054,
              "z": -0.4354
            }
          },
          {
            "elSymbol": "Du",
            "p3d": {
              "x": -1.9744,
              "y": 0.9926,
              "z": -0.5036
            }
          }
        ],
        "bonds": [
          {
            "atomIds": [
              0,
              1
            ],
            "bo": "TRIPLE"
          },
          {
            "atomIds": [
              2,
              0
            ],
            "bo": "SINGLE"
          }
        ]
      },
      "vertexId": 87,
      "buildingBlockId": 65,
      "buildingBlockType": "FRAGMENT",
      "isRCV": false,
      "properties": {
        "ATTACHMENT_POINTS": "1#Xlig:1:SINGLE:0.0192%-0.0048%-0.5645 "
      },
      "uniquefyingPropertyKeys": [],
      "allowedMutationTypes": [
        "DELETE",
        "EXTEND",
        "CHANGEBRANCH",
        "CHANGELINK",
        "ADDLINK",
        "DELETELINK",
        "DELETECHAIN"
      ],
      "vertexType": "MolecularFragment"
    },
    {
      "lstAPs": [
        {
          "id": 133580,
          "atomPositionNumber": 0,
          "atomPositionNumberInMol": 24,
          "apClass": {
            "rule": "SubRM",
            "subClass": 1,
            "bndTyp": "SINGLE"
          },
          "dirVec": {
            "x": 0.2917,
            "y": 0.3929,
            "z": -0.6365
          }
        }
      ],
      "lstSymAPs": [],
      "mol": {
        "atoms": [
          {
            "elSymbol": "C",
            "p3d": {
              "x": 1.7002,
              "y": 0.56,
              "z": -1.2045
            }
          },
          {
            "elSymbol": "C",
            "p3d": {
              "x": 3.564,
              "y": -0.7339,
              "z": -2.2652
            }
          },
          {
            "elSymbol": "C",
            "p3d": {
              "x": 2.9237,
              "y": 1.5034,
              "z": -3.1926
            }
          },
          {
            "elSymbol": "C",
            "p3d": {
              "x": 3.4145,
              "y": 0.0994,
              "z": -3.5498
            }
          },
          {
            "elSymbol": "C",
            "p3d": {
              "x": 1.5576,
              "y": 1.3879,
              "z": -2.5024
            }
          },
          {
            "elSymbol": "C",
            "p3d": {
              "x": 2.203,
              "y": -0.843,
              "z": -1.5702
            }
          },
          {
            "elSymbol": "H",
            "p3d": {
              "x": 4.3384,
              "y": -0.3241,
              "z": -1.6106
            }
          },
          {
            "elSymbol": "H",
            "p3d": {
              "x": 3.6361,
              "y": 2.0524,
              "z": -2.5991
            }
          },
          {
            "elSymbol": "H",
            "p3d": {
              "x": 2.7828,
              "y": -0.3911,
              "z": -4.2916
            }
          },
          {
            "elSymbol": "H",
            "p3d": {
              "x": 0.7737,
              "y": 0.9833,
              "z": -3.15
            }
          },
          {
            "elSymbol": "H",
            "p3d": {
              "x": 1.4815,
              "y": -1.3988,
              "z": -2.1783
            }
          },
          {
            "elSymbol": "H",
            "p3d": {
              "x": 2.3445,
              "y": 1.0609,
              "z": -0.4835
            }
          },
          {
            "elSymbol": "H",
            "p3d": {
              "x": 3.8429,
              "y": -1.7623,
              "z": -2.577
            }
          },
          {
            "elSymbol": "H",
            "p3d": {
              "x": 2.7428,
              "y": 2.0124,
              "z": -4.146
            }
          },
          {
            "elSymbol": "H",
            "p3d": {
              "x": 4.4291,
              "y": 0.2183,
              "z": -3.9628
            }
          },
          {
            "elSymbol": "H",
            "p3d": {
              "x": 1.2819,
              "y": 2.4034,
              "z": -2.1821
            }
          },
          {
            "elSymbol": "H",
            "p3d": {
              "x": 2.3734,
              "y": -1.3662,
              "z": -0.6149
            }
          }
        ],
        "bonds": [
          {
            "atomIds": [
              0,
              11
            ],
            "bo": "SINGLE"
          },
          {
            "atomIds": [
              0,
              4
            ],
            "bo": "SINGLE"
          },
          {
            "atomIds": [
              0,
              5
            ],
            "bo": "SINGLE"
          },
          {
            "atomIds": [
              1,
              6
            ],
            "bo": "SINGLE"
          },
          {
            "atomIds": [
              1,
              12
            ],
            "bo": "SINGLE"
          },
          {
            "atomIds": [
              1,
              3
            ],
            "bo": "SINGLE"
          },
          {
            "atomIds": [
              1,
              5
            ],
            "bo": "SINGLE"
          },
          {
            "atomIds": [
              2,
              7
            ],
            "bo": "SINGLE"
          },
          {
            "atomIds": [
              2,
              13
            ],
            "bo": "SINGLE"
          },
          {
            "atomIds": [
              2,
              4
            ],
            "bo": "SINGLE"
          },
          {
            "atomIds": [
              2,
              3
            ],
            "bo": "SINGLE"
          },
          {
            "atomIds": [
              3,
              8
            ],
            "bo": "SINGLE"
          },
          {
            "atomIds": [
              3,
              14
            ],
            "bo": "SINGLE"
          },
          {
            "atomIds": [
              4,
              9
            ],
            "bo": "SINGLE"
          },
          {
            "atomIds": [
              4,
              15
            ],
            "bo": "SINGLE"
          },
          {
            "atomIds": [
              5,
              10
            ],
            "bo": "SINGLE"
          },
          {
            "atomIds": [
              5,
              16
            ],
            "bo": "SINGLE"
          }
        ]
      },
      "vertexId": 101162,
      "buildingBlockId": 34,
      "buildingBlockType": "FRAGMENT",
      "isRCV": false,
      "properties": {
        "ATTACHMENT_POINTS": "1#SubRM:1:SINGLE:0.2917%0.3929%-0.6365 "
      },
      "uniquefyingPropertyKeys": [],
      "allowedMutationTypes": [
        "DELETE",
        "EXTEND",
        "CHANGEBRANCH",
        "CHANGELINK",
        "ADDLINK",
        "DELETELINK",
        "DELETECHAIN"
      ],
      "vertexType": "MolecularFragment"
    },
    {
      "lstAPs": [
        {
          "id": 133581,
          "atomPositionNumber": 1,
          "atomPositionNumberInMol": 42,
          "apClass": {
            "rule": "SubRS",
            "subClass": 1,
            "bndTyp": "SINGLE"
          },
          "dirVec": {
            "x": 0.2985,
            "y": 0.384,
            "z": -0.6258
          }
        }
      ],
      "lstSymAPs": [],
      "mol": {
        "atoms": [
          {
            "elSymbol": "C",
            "p3d": {
              "x": -1.0244,
              "y": -0.2225,
              "z": 1.3991
            }
          },
          {
            "elSymbol": "C",
            "p3d": {
              "x": 0.3973,
              "y": -0.042,
              "z": 0.8195
            }
          },
          {
            "elSymbol": "H",
            "p3d": {
              "x": -1.5635,
              "y": -0.9908,
              "z": 0.8263
            }
          },
          {
            "elSymbol": "H",
            "p3d": {
              "x": -0.941,
              "y": -0.535,
              "z": 2.446
            }
          },
          {
            "elSymbol": "H",
            "p3d": {
              "x": -1.5586,
              "y": 0.7335,
              "z": 1.3382
            }
          },
          {
            "elSymbol": "H",
            "p3d": {
              "x": 0.9335,
              "y": 0.7221,
              "z": 1.4011
            }
          },
          {
            "elSymbol": "H",
            "p3d": {
              "x": 0.927,
              "y": -1.0102,
              "z": 0.9001
            }
          }
        ],
        "bonds": [
          {
            "atomIds": [
              0,
              1
            ],
            "bo": "SINGLE"
          },
          {
            "atomIds": [
              0,
              2
            ],
            "bo": "SINGLE"
          },
          {
            "atomIds": [
              0,
              3
            ],
            "bo": "SINGLE"
          },
          {
            "atomIds": [
              0,
              4
            ],
            "bo": "SINGLE"
          },
          {
            "atomIds": [
              1,
              5
            ],
            "bo": "SINGLE"
          },
          {
            "atomIds": [
              1,
              6
            ],
            "bo": "SINGLE"
          }
        ]
      },
      "vertexId": 101168,
      "buildingBlockId": 31,
      "buildingBlockType": "FRAGMENT",
      "isRCV": false,
      "properties": {
        "ATTACHMENT_POINTS": "2#SubRS:1:SINGLE:0.2985%0.3840%-0.6258 "
      },
      "uniquefyingPropertyKeys": [],
      "allowedMutationTypes": [
        "DELETE",
        "EXTEND",
        "CHANGEBRANCH",
        "CHANGELINK",
        "ADDLINK",
        "DELETELINK",
        "DELETECHAIN"
      ],
      "vertexType": "MolecularFragment"
    },
    {
      "lstAPs": [
        {
          "id": 133582,
          "atomPositionNumber": 1,
          "atomPositionNumberInMol": 49,
          "apClass": {
            "rule": "SubRS",
            "subClass": 1,
            "bndTyp": "SINGLE"
          },
          "dirVec": {
            "x": 0.2985,
            "y": 0.384,
            "z": -0.6258
          }
        }
      ],
      "lstSymAPs": [],
      "mol": {
        "atoms": [
          {
            "elSymbol": "C",
            "p3d": {
              "x": -1.0244,
              "y": -0.2225,
              "z": 1.3991
            }
          },
          {
            "elSymbol": "C",
            "p3d": {
              "x": 0.3973,
              "y": -0.042,
              "z": 0.8195
            }
          },
          {
            "elSymbol": "H",
            "p3d": {
              "x": -1.5635,
              "y": -0.9908,
              "z": 0.8263
            }
          },
          {
            "elSymbol": "H",
            "p3d": {
              "x": -0.941,
              "y": -0.535,
              "z": 2.446
            }
          },
          {
            "elSymbol": "H",
            "p3d": {
              "x": -1.5586,
              "y": 0.7335,
              "z": 1.3382
            }
          },
          {
            "elSymbol": "H",
            "p3d": {
              "x": 0.9335,
              "y": 0.7221,
              "z": 1.4011
            }
          },
          {
            "elSymbol": "H",
            "p3d": {
              "x": 0.927,
              "y": -1.0102,
              "z": 0.9001
            }
          }
        ],
        "bonds": [
          {
            "atomIds": [
              0,
              1
            ],
            "bo": "SINGLE"
          },
          {
            "atomIds": [
              0,
              2
            ],
            "bo": "SINGLE"
          },
          {
            "atomIds": [
              0,
              3
            ],
            "bo": "SINGLE"
          },
          {
            "atomIds": [
              0,
              4
            ],
            "bo": "SINGLE"
          },
          {
            "atomIds": [
              1,
              5
            ],
            "bo": "SINGLE"
          },
          {
            "atomIds": [
              1,
              6
            ],
            "bo": "SINGLE"
          }
        ]
      },
      "vertexId": 101509,
      "buildingBlockId": 31,
      "buildingBlockType": "FRAGMENT",
      "isRCV": false,
      "properties": {
        "ATTACHMENT_POINTS": "2#SubRS:1:SINGLE:0.2985%0.3840%-0.6258 "
      },
      "uniquefyingPropertyKeys": [],
      "allowedMutationTypes": [
        "DELETE",
        "EXTEND",
        "CHANGEBRANCH",
        "CHANGELINK",
        "ADDLINK",
        "DELETELINK",
        "DELETECHAIN"
      ],
      "vertexType": "MolecularFragment"
    }
  ],
  "gEdges": [
    {
      "srcAPID": 133535,
      "trgAPID": 133538,
      "bondType": "SINGLE"
    },
    {
      "srcAPID": 133537,
      "trgAPID": 133540,
      "bondType": "SINGLE"
    },
    {
      "srcAPID": 133536,
      "trgAPID": 133543,
      "bondType": "SINGLE"
    },
    {
      "srcAPID": 133539,
      "trgAPID": 133580,
      "bondType": "SINGLE"
    },
    {
      "srcAPID": 133541,
      "trgAPID": 133581,
      "bondType": "SINGLE"
    },
    {
      "srcAPID": 133542,
      "trgAPID": 133582,
      "bondType": "SINGLE"
    }
  ],
  "gRings": [],
  "symVertices": [
    {
      "symIds": [
        101168,
        101509
      ]
    }
  ]
}

> <SMILES>
[Pt](C#O)(OC([H])([H])[H])([P]1(C(=C2C([H])([H])C([H])([H])C(C2=C1C(C([H])([H])[H])([H])[H])([H])[H])C(C([H])([H])[H])([H])[H])C3([H])C(C([H])([H])C(C([H])([H])C3([H])[H])([H])[H])([H])[H])C#N

$$$$
