M00021293
  CDK     04222216193D

 53 57  0  0  0  0  0  0  0  0999 V2000
   -3.4669    1.2366   -1.5262 Pt  0  0  0  0  0  0  0  0  0  0  0  0
   -5.4057    1.5784   -1.4811 C   0  0  0  0  0  0  0  0  0  0  0  0
   -6.5208    1.8179   -1.4425 O   0  0  0  0  0  0  0  0  0  0  0  0
   -2.6440    3.0815   -1.1038 O   0  0  0  0  0  0  0  0  0  0  0  0
   -3.0502    3.6186    0.1365 C   0  0  0  0  0  0  0  0  0  0  0  0
   -2.5644    4.6028    0.2038 H   0  0  0  0  0  0  0  0  0  0  0  0
   -2.7087    2.9730    0.9634 H   0  0  0  0  0  0  0  0  0  0  0  0
   -4.1408    3.7254    0.1480 H   0  0  0  0  0  0  0  0  0  0  0  0
   -1.2309    1.2016   -1.5024 P   0  0  0  0  0  0  0  0  0  0  0  0
   -0.4117    1.7478   -0.1459 O   0  0  0  0  0  0  0  0  0  0  0  0
   -0.6236   -0.3558   -1.7199 O   0  0  0  0  0  0  0  0  0  0  0  0
   -0.3787    0.8227    0.9104 C   0  0  0  0  0  0  0  0  0  0  0  0
   -1.1932    1.1478    2.0309 C   0  0  0  0  0  0  0  0  0  0  0  0
   -1.8278    2.0405    1.9693 H   0  0  0  0  0  0  0  0  0  0  0  0
   -1.1428    0.3404    3.1350 C   0  0  0  0  0  0  0  0  0  0  0  0
   -1.7382    0.5677    4.0201 H   0  0  0  0  0  0  0  0  0  0  0  0
   -0.3201   -0.8331    3.1410 C   0  0  0  0  0  0  0  0  0  0  0  0
   -0.3121   -1.7064    4.2749 C   0  0  0  0  0  0  0  0  0  0  0  0
   -0.9140   -1.4393    5.1431 H   0  0  0  0  0  0  0  0  0  0  0  0
    0.4331   -2.8581    4.2641 C   0  0  0  0  0  0  0  0  0  0  0  0
    0.4437   -3.5279    5.1231 H   0  0  0  0  0  0  0  0  0  0  0  0
    1.2022   -3.2010    3.1149 C   0  0  0  0  0  0  0  0  0  0  0  0
    1.7681   -4.1325    3.1211 H   0  0  0  0  0  0  0  0  0  0  0  0
    1.2236   -2.3749    2.0197 C   0  0  0  0  0  0  0  0  0  0  0  0
    1.8019   -2.6455    1.1337 H   0  0  0  0  0  0  0  0  0  0  0  0
    0.4786   -1.1521    2.0088 C   0  0  0  0  0  0  0  0  0  0  0  0
    0.4890   -0.2573    0.8803 C   0  0  0  0  0  0  0  0  0  0  0  0
    1.3366   -0.4804   -0.3045 C   0  0  0  0  0  0  0  0  0  0  0  0
    2.7661   -0.6276   -0.2216 C   0  0  0  0  0  0  0  0  0  0  0  0
    3.4815   -0.4558    1.0069 C   0  0  0  0  0  0  0  0  0  0  0  0
    2.9243   -0.1846    1.9056 H   0  0  0  0  0  0  0  0  0  0  0  0
    4.8439   -0.6107    1.0537 C   0  0  0  0  0  0  0  0  0  0  0  0
    5.3880   -0.4762    1.9883 H   0  0  0  0  0  0  0  0  0  0  0  0
    5.5748   -0.9440   -0.1230 C   0  0  0  0  0  0  0  0  0  0  0  0
    6.6542   -1.0705   -0.0536 H   0  0  0  0  0  0  0  0  0  0  0  0
    4.9213   -1.0907   -1.3201 C   0  0  0  0  0  0  0  0  0  0  0  0
    5.4702   -1.3326   -2.2298 H   0  0  0  0  0  0  0  0  0  0  0  0
    3.5025   -0.9207   -1.4018 C   0  0  0  0  0  0  0  0  0  0  0  0
    2.8303   -1.0218   -2.6630 C   0  0  0  0  0  0  0  0  0  0  0  0
    3.4164   -1.2600   -3.5516 H   0  0  0  0  0  0  0  0  0  0  0  0
    1.4815   -0.8024   -2.7550 C   0  0  0  0  0  0  0  0  0  0  0  0
    0.9403   -0.8428   -3.7004 H   0  0  0  0  0  0  0  0  0  0  0  0
    0.7590   -0.5120   -1.5642 C   0  0  0  0  0  0  0  0  0  0  0  0
   -0.4389    2.0364   -2.6797 O   0  0  0  0  0  0  0  0  0  0  0  0
   -1.2912    2.9553   -3.4347 C   0  0  0  0  0  0  0  0  0  0  0  0
   -0.6029    3.2932   -4.2224 H   0  0  0  0  0  0  0  0  0  0  0  0
   -2.1603    2.4436   -3.8677 H   0  0  0  0  0  0  0  0  0  0  0  0
   -1.5939    3.8036   -2.7938 H   0  0  0  0  0  0  0  0  0  0  0  0
   -4.1758   -0.5668   -2.1144 O   0  0  0  0  0  0  0  0  0  0  0  0
   -3.4414   -1.6290   -1.5405 C   0  0  0  0  0  0  0  0  0  0  0  0
   -4.0376   -2.5312   -1.7405 H   0  0  0  0  0  0  0  0  0  0  0  0
   -3.3336   -1.4782   -0.4600 H   0  0  0  0  0  0  0  0  0  0  0  0
   -2.4609   -1.7133   -2.0323 H   0  0  0  0  0  0  0  0  0  0  0  0
  2  3  3  0  0  0  0
  1  2  1  0  0  0  0
  5  6  1  0  0  0  0
  5  7  1  0  0  0  0
  5  8  1  0  0  0  0
  4  5  1  0  0  0  0
  1  4  1  0  0  0  0
 10  9  1  0  0  0  0
 11  9  1  0  0  0  0
 12 10  1  0  0  0  0
 13 12  2  0  0  0  0
 14 13  1  0  0  0  0
 15 13  1  0  0  0  0
 16 15  1  0  0  0  0
 17 15  2  0  0  0  0
 18 17  1  0  0  0  0
 19 18  1  0  0  0  0
 20 18  2  0  0  0  0
 21 20  1  0  0  0  0
 22 20  1  0  0  0  0
 23 22  1  0  0  0  0
 24 22  2  0  0  0  0
 24 26  1  0  0  0  0
 25 24  1  0  0  0  0
 26 17  1  0  0  0  0
 26 27  2  0  0  0  0
 27 12  1  0  0  0  0
 28 27  1  0  0  0  0
 28 43  1  0  0  0  0
 29 28  2  0  0  0  0
 30 29  1  0  0  0  0
 31 30  1  0  0  0  0
 32 30  2  0  0  0  0
 33 32  1  0  0  0  0
 34 32  1  0  0  0  0
 35 34  1  0  0  0  0
 36 34  2  0  0  0  0
 36 38  1  0  0  0  0
 37 36  1  0  0  0  0
 38 29  1  0  0  0  0
 39 38  2  0  0  0  0
 40 39  1  0  0  0  0
 41 39  1  0  0  0  0
 41 43  2  0  0  0  0
 42 41  1  0  0  0  0
 43 11  1  0  0  0  0
  1  9  1  0  0  0  0
  9 44  1  0  0  0  0
 45 46  1  0  0  0  0
 45 47  1  0  0  0  0
 45 48  1  0  0  0  0
 44 45  1  0  0  0  0
 50 51  1  0  0  0  0
 50 52  1  0  0  0  0
 50 53  1  0  0  0  0
 49 50  1  0  0  0  0
  1 49  1  0  0  0  0
M  END
> <PM6_ENERGY>
-590.492

> <UID>
HOOIZDLOMBWPCW-QWXHJFLRNA-N

> <FITNESS>
1.14118

> <GCODE>
22654

> <GraphENC>
22654 72_1_0,80_65_1,111_50_1,86_65_1,73979_52_1,560857_31_1, 72_0_80_0_SINGLE_Xlig:0_Xlig:1,72_2_111_1_SINGLE_scaff:0_MPhosphite:1,72_1_86_0_SINGLE_Xlig:0_Xlig:1,111_0_73979_0_SINGLE_LPhosphiteSubO:0_LPhosphiteSubO:1,73979_1_560857_0_SINGLE_OPhosphiteSub:1_SubRS:1, 

> <GraphJson>
{
  "graphId": 22654,
  "gVertices": [
    {
      "lstAPs": [
        {
          "id": 622960,
          "atomPositionNumber": 0,
          "atomPositionNumberInMol": 0,
          "apClass": {
            "rule": "Xlig",
            "subClass": 0,
            "bndTyp": "SINGLE"
          },
          "dirVec": {
            "x": -2.3339,
            "y": -0.0087,
            "z": 0.8172
          }
        },
        {
          "id": 622961,
          "atomPositionNumber": 0,
          "atomPositionNumberInMol": 0,
          "apClass": {
            "rule": "Xlig",
            "subClass": 0,
            "bndTyp": "SINGLE"
          },
          "dirVec": {
            "x": 2.336,
            "y": -5.0E-4,
            "z": 0.829
          }
        },
        {
          "id": 622962,
          "atomPositionNumber": 0,
          "atomPositionNumberInMol": 0,
          "apClass": {
            "rule": "scaff",
            "subClass": 0,
            "bndTyp": "SINGLE"
          },
          "dirVec": {
            "x": -0.0095,
            "y": 0.0046,
            "z": -1.7113
          }
        }
      ],
      "lstSymAPs": [
        {
          "symIds": [
            0,
            1
          ]
        }
      ],
      "mol": {
        "atoms": [
          {
            "elSymbol": "Pt",
            "p3d": {
              "x": -0.0098,
              "y": 0.0049,
              "z": 0.6289
            }
          },
          {
            "elSymbol": "C",
            "p3d": {
              "x": -6.0E-4,
              "y": 0.0016,
              "z": 2.5609
            }
          },
          {
            "elSymbol": "O",
            "p3d": {
              "x": 0.0025,
              "y": -0.0041,
              "z": 3.6974
            }
          },
          {
            "elSymbol": "Du",
            "p3d": {
              "x": -0.007,
              "y": 1.0013,
              "z": 0.6372
            }
          },
          {
            "elSymbol": "Du",
            "p3d": {
              "x": -0.0014,
              "y": 0.9902,
              "z": 2.5698
            }
          }
        ],
        "bonds": [
          {
            "atomIds": [
              1,
              2
            ],
            "bo": "TRIPLE"
          },
          {
            "atomIds": [
              0,
              1
            ],
            "bo": "SINGLE"
          },
          {
            "atomIds": [
              3,
              0
            ],
            "bo": "SINGLE"
          },
          {
            "atomIds": [
              4,
              1
            ],
            "bo": "SINGLE"
          }
        ]
      },
      "vertexId": 72,
      "buildingBlockId": 0,
      "buildingBlockType": "SCAFFOLD",
      "isRCV": false,
      "properties": {
        "ATTACHMENT_POINTS": "1#Xlig:0:SINGLE:-2.3339%-0.0087%0.8172,Xlig:0:SINGLE:2.3360%-0.0005%0.8290,scaff:0:SINGLE:-0.0095%0.0046%-1.7113 "
      },
      "uniquefyingPropertyKeys": [],
      "allowedMutationTypes": [
        "DELETE",
        "EXTEND",
        "CHANGEBRANCH",
        "CHANGELINK",
        "ADDLINK",
        "DELETELINK",
        "DELETECHAIN"
      ],
      "vertexType": "MolecularFragment"
    },
    {
      "lstAPs": [
        {
          "id": 622963,
          "atomPositionNumber": 0,
          "atomPositionNumberInMol": 5,
          "apClass": {
            "rule": "Xlig",
            "subClass": 1,
            "bndTyp": "SINGLE"
          },
          "dirVec": {
            "x": -0.1753,
            "y": 0.0948,
            "z": -0.4464
          }
        }
      ],
      "lstSymAPs": [],
      "mol": {
        "atoms": [
          {
            "elSymbol": "O",
            "p3d": {
              "x": -0.3534,
              "y": 2.1044,
              "z": -0.7339
            }
          },
          {
            "elSymbol": "C",
            "p3d": {
              "x": -0.5345,
              "y": 2.7646,
              "z": 0.4801
            }
          },
          {
            "elSymbol": "H",
            "p3d": {
              "x": -0.3728,
              "y": 3.8337,
              "z": 0.2724
            }
          },
          {
            "elSymbol": "H",
            "p3d": {
              "x": 0.1816,
              "y": 2.4161,
              "z": 1.2384
            }
          },
          {
            "elSymbol": "H",
            "p3d": {
              "x": -1.553,
              "y": 2.6149,
              "z": 0.8489
            }
          }
        ],
        "bonds": [
          {
            "atomIds": [
              1,
              2
            ],
            "bo": "SINGLE"
          },
          {
            "atomIds": [
              1,
              3
            ],
            "bo": "SINGLE"
          },
          {
            "atomIds": [
              1,
              4
            ],
            "bo": "SINGLE"
          },
          {
            "atomIds": [
              0,
              1
            ],
            "bo": "SINGLE"
          }
        ]
      },
      "vertexId": 80,
      "buildingBlockId": 64,
      "buildingBlockType": "FRAGMENT",
      "isRCV": false,
      "properties": {
        "ATTACHMENT_POINTS": "1#Xlig:1:SINGLE:-0.1753%0.0948%-0.4464 "
      },
      "uniquefyingPropertyKeys": [],
      "allowedMutationTypes": [
        "DELETE",
        "EXTEND",
        "CHANGEBRANCH",
        "CHANGELINK",
        "ADDLINK",
        "DELETELINK",
        "DELETECHAIN"
      ],
      "vertexType": "MolecularFragment"
    },
    {
      "lstAPs": [
        {
          "id": 622964,
          "atomPositionNumber": 0,
          "atomPositionNumberInMol": 10,
          "apClass": {
            "rule": "LPhosphiteSubO",
            "subClass": 0,
            "bndTyp": "SINGLE"
          },
          "dirVec": {
            "x": 7.8978,
            "y": 2.2953,
            "z": -1.0004
          }
        },
        {
          "id": 622965,
          "atomPositionNumber": 0,
          "atomPositionNumberInMol": 10,
          "apClass": {
            "rule": "MPhosphite",
            "subClass": 1,
            "bndTyp": "SINGLE"
          },
          "dirVec": {
            "x": 8.1055,
            "y": 3.5873,
            "z": 1.9978
          }
        }
      ],
      "lstSymAPs": [],
      "mol": {
        "atoms": [
          {
            "elSymbol": "P",
            "p3d": {
              "x": 7.9084,
              "y": 1.9754,
              "z": 0.5292
            }
          },
          {
            "elSymbol": "O",
            "p3d": {
              "x": 9.0676,
              "y": 0.8826,
              "z": 0.4629
            }
          },
          {
            "elSymbol": "O",
            "p3d": {
              "x": 6.6295,
              "y": 1.0833,
              "z": 0.8378
            }
          },
          {
            "elSymbol": "C",
            "p3d": {
              "x": 9.1253,
              "y": -0.1058,
              "z": 1.5323
            }
          },
          {
            "elSymbol": "C",
            "p3d": {
              "x": 10.1483,
              "y": 0.0879,
              "z": 2.4774
            }
          },
          {
            "elSymbol": "H",
            "p3d": {
              "x": 10.8506,
              "y": 0.9254,
              "z": 2.3567
            }
          },
          {
            "elSymbol": "C",
            "p3d": {
              "x": 10.266,
              "y": -0.7624,
              "z": 3.5022
            }
          },
          {
            "elSymbol": "H",
            "p3d": {
              "x": 11.0535,
              "y": -0.661,
              "z": 4.2292
            }
          },
          {
            "elSymbol": "C",
            "p3d": {
              "x": 9.3117,
              "y": -1.8292,
              "z": 3.6241
            }
          },
          {
            "elSymbol": "C",
            "p3d": {
              "x": 9.3872,
              "y": -2.7418,
              "z": 4.7564
            }
          },
          {
            "elSymbol": "H",
            "p3d": {
              "x": 10.1945,
              "y": -2.6628,
              "z": 5.4815
            }
          },
          {
            "elSymbol": "C",
            "p3d": {
              "x": 8.4129,
              "y": -3.6623,
              "z": 4.9017
            }
          },
          {
            "elSymbol": "H",
            "p3d": {
              "x": 8.4465,
              "y": -4.3006,
              "z": 5.782
            }
          },
          {
            "elSymbol": "C",
            "p3d": {
              "x": 7.4123,
              "y": -3.8689,
              "z": 3.9886
            }
          },
          {
            "elSymbol": "H",
            "p3d": {
              "x": 6.6644,
              "y": -4.6462,
              "z": 4.1245
            }
          },
          {
            "elSymbol": "C",
            "p3d": {
              "x": 7.362,
              "y": -2.9904,
              "z": 2.8379
            }
          },
          {
            "elSymbol": "H",
            "p3d": {
              "x": 6.5752,
              "y": -3.1171,
              "z": 2.102
            }
          },
          {
            "elSymbol": "C",
            "p3d": {
              "x": 8.2931,
              "y": -2.0283,
              "z": 2.6386
            }
          },
          {
            "elSymbol": "C",
            "p3d": {
              "x": 8.2222,
              "y": -1.1106,
              "z": 1.5036
            }
          },
          {
            "elSymbol": "C",
            "p3d": {
              "x": 7.2264,
              "y": -1.2173,
              "z": 0.4606
            }
          },
          {
            "elSymbol": "C",
            "p3d": {
              "x": 7.0184,
              "y": -2.412,
              "z": -0.3736
            }
          },
          {
            "elSymbol": "C",
            "p3d": {
              "x": 7.8626,
              "y": -3.5428,
              "z": -0.2234
            }
          },
          {
            "elSymbol": "H",
            "p3d": {
              "x": 8.6354,
              "y": -3.5405,
              "z": 0.5507
            }
          },
          {
            "elSymbol": "C",
            "p3d": {
              "x": 7.682,
              "y": -4.6511,
              "z": -1.0479
            }
          },
          {
            "elSymbol": "H",
            "p3d": {
              "x": 8.311,
              "y": -5.5242,
              "z": -0.9425
            }
          },
          {
            "elSymbol": "C",
            "p3d": {
              "x": 6.7355,
              "y": -4.6351,
              "z": -2.0117
            }
          },
          {
            "elSymbol": "H",
            "p3d": {
              "x": 6.5863,
              "y": -5.522,
              "z": -2.6583
            }
          },
          {
            "elSymbol": "C",
            "p3d": {
              "x": 5.9066,
              "y": -3.5062,
              "z": -2.2127
            }
          },
          {
            "elSymbol": "H",
            "p3d": {
              "x": 5.1559,
              "y": -3.5321,
              "z": -3.0139
            }
          },
          {
            "elSymbol": "C",
            "p3d": {
              "x": 6.0185,
              "y": -2.3785,
              "z": -1.4005
            }
          },
          {
            "elSymbol": "C",
            "p3d": {
              "x": 5.2406,
              "y": -1.2493,
              "z": -1.6114
            }
          },
          {
            "elSymbol": "H",
            "p3d": {
              "x": 4.4697,
              "y": -1.2606,
              "z": -2.3785
            }
          },
          {
            "elSymbol": "C",
            "p3d": {
              "x": 5.4446,
              "y": -0.1476,
              "z": -0.8639
            }
          },
          {
            "elSymbol": "H",
            "p3d": {
              "x": 4.8409,
              "y": 0.7494,
              "z": -1.0205
            }
          },
          {
            "elSymbol": "C",
            "p3d": {
              "x": 6.4251,
              "y": -0.1479,
              "z": 0.1006
            }
          }
        ],
        "bonds": [
          {
            "atomIds": [
              1,
              0
            ],
            "bo": "SINGLE"
          },
          {
            "atomIds": [
              2,
              0
            ],
            "bo": "SINGLE"
          },
          {
            "atomIds": [
              3,
              1
            ],
            "bo": "SINGLE"
          },
          {
            "atomIds": [
              4,
              3
            ],
            "bo": "DOUBLE"
          },
          {
            "atomIds": [
              5,
              4
            ],
            "bo": "SINGLE"
          },
          {
            "atomIds": [
              6,
              4
            ],
            "bo": "SINGLE"
          },
          {
            "atomIds": [
              7,
              6
            ],
            "bo": "SINGLE"
          },
          {
            "atomIds": [
              8,
              6
            ],
            "bo": "DOUBLE"
          },
          {
            "atomIds": [
              9,
              8
            ],
            "bo": "SINGLE"
          },
          {
            "atomIds": [
              10,
              9
            ],
            "bo": "SINGLE"
          },
          {
            "atomIds": [
              11,
              9
            ],
            "bo": "DOUBLE"
          },
          {
            "atomIds": [
              12,
              11
            ],
            "bo": "SINGLE"
          },
          {
            "atomIds": [
              13,
              11
            ],
            "bo": "SINGLE"
          },
          {
            "atomIds": [
              14,
              13
            ],
            "bo": "SINGLE"
          },
          {
            "atomIds": [
              15,
              13
            ],
            "bo": "DOUBLE"
          },
          {
            "atomIds": [
              15,
              17
            ],
            "bo": "SINGLE"
          },
          {
            "atomIds": [
              16,
              15
            ],
            "bo": "SINGLE"
          },
          {
            "atomIds": [
              17,
              8
            ],
            "bo": "SINGLE"
          },
          {
            "atomIds": [
              17,
              18
            ],
            "bo": "DOUBLE"
          },
          {
            "atomIds": [
              18,
              3
            ],
            "bo": "SINGLE"
          },
          {
            "atomIds": [
              19,
              18
            ],
            "bo": "SINGLE"
          },
          {
            "atomIds": [
              19,
              34
            ],
            "bo": "SINGLE"
          },
          {
            "atomIds": [
              20,
              19
            ],
            "bo": "DOUBLE"
          },
          {
            "atomIds": [
              21,
              20
            ],
            "bo": "SINGLE"
          },
          {
            "atomIds": [
              22,
              21
            ],
            "bo": "SINGLE"
          },
          {
            "atomIds": [
              23,
              21
            ],
            "bo": "DOUBLE"
          },
          {
            "atomIds": [
              24,
              23
            ],
            "bo": "SINGLE"
          },
          {
            "atomIds": [
              25,
              23
            ],
            "bo": "SINGLE"
          },
          {
            "atomIds": [
              26,
              25
            ],
            "bo": "SINGLE"
          },
          {
            "atomIds": [
              27,
              25
            ],
            "bo": "DOUBLE"
          },
          {
            "atomIds": [
              27,
              29
            ],
            "bo": "SINGLE"
          },
          {
            "atomIds": [
              28,
              27
            ],
            "bo": "SINGLE"
          },
          {
            "atomIds": [
              29,
              20
            ],
            "bo": "SINGLE"
          },
          {
            "atomIds": [
              30,
              29
            ],
            "bo": "DOUBLE"
          },
          {
            "atomIds": [
              31,
              30
            ],
            "bo": "SINGLE"
          },
          {
            "atomIds": [
              32,
              30
            ],
            "bo": "SINGLE"
          },
          {
            "atomIds": [
              32,
              34
            ],
            "bo": "DOUBLE"
          },
          {
            "atomIds": [
              33,
              32
            ],
            "bo": "SINGLE"
          },
          {
            "atomIds": [
              34,
              2
            ],
            "bo": "SINGLE"
          }
        ]
      },
      "vertexId": 111,
      "buildingBlockId": 49,
      "buildingBlockType": "FRAGMENT",
      "isRCV": false,
      "properties": {
        "ATTACHMENT_POINTS": "1#LPhosphiteSubO:0:SINGLE:7.8978%2.2953%-1.0004,MPhosphite:1:SINGLE:8.1055%3.5873%1.9978 "
      },
      "uniquefyingPropertyKeys": [],
      "allowedMutationTypes": [
        "DELETE",
        "EXTEND",
        "CHANGEBRANCH",
        "CHANGELINK",
        "ADDLINK",
        "DELETELINK",
        "DELETECHAIN"
      ],
      "vertexType": "MolecularFragment"
    },
    {
      "lstAPs": [
        {
          "id": 622966,
          "atomPositionNumber": 0,
          "atomPositionNumberInMol": 50,
          "apClass": {
            "rule": "Xlig",
            "subClass": 1,
            "bndTyp": "SINGLE"
          },
          "dirVec": {
            "x": -0.1753,
            "y": 0.0948,
            "z": -0.4464
          }
        }
      ],
      "lstSymAPs": [],
      "mol": {
        "atoms": [
          {
            "elSymbol": "O",
            "p3d": {
              "x": -0.3534,
              "y": 2.1044,
              "z": -0.7339
            }
          },
          {
            "elSymbol": "C",
            "p3d": {
              "x": -0.5345,
              "y": 2.7646,
              "z": 0.4801
            }
          },
          {
            "elSymbol": "H",
            "p3d": {
              "x": -0.3728,
              "y": 3.8337,
              "z": 0.2724
            }
          },
          {
            "elSymbol": "H",
            "p3d": {
              "x": 0.1816,
              "y": 2.4161,
              "z": 1.2384
            }
          },
          {
            "elSymbol": "H",
            "p3d": {
              "x": -1.553,
              "y": 2.6149,
              "z": 0.8489
            }
          }
        ],
        "bonds": [
          {
            "atomIds": [
              1,
              2
            ],
            "bo": "SINGLE"
          },
          {
            "atomIds": [
              1,
              3
            ],
            "bo": "SINGLE"
          },
          {
            "atomIds": [
              1,
              4
            ],
            "bo": "SINGLE"
          },
          {
            "atomIds": [
              0,
              1
            ],
            "bo": "SINGLE"
          }
        ]
      },
      "vertexId": 86,
      "buildingBlockId": 64,
      "buildingBlockType": "FRAGMENT",
      "isRCV": false,
      "properties": {
        "ATTACHMENT_POINTS": "1#Xlig:1:SINGLE:-0.1753%0.0948%-0.4464 "
      },
      "uniquefyingPropertyKeys": [],
      "allowedMutationTypes": [
        "DELETE",
        "EXTEND",
        "CHANGEBRANCH",
        "CHANGELINK",
        "ADDLINK",
        "DELETELINK",
        "DELETECHAIN"
      ],
      "vertexType": "MolecularFragment"
    },
    {
      "lstAPs": [
        {
          "id": 622967,
          "atomPositionNumber": 0,
          "atomPositionNumberInMol": 45,
          "apClass": {
            "rule": "LPhosphiteSubO",
            "subClass": 1,
            "bndTyp": "SINGLE"
          },
          "dirVec": {
            "x": 0.7035,
            "y": 2.9119,
            "z": 2.8175
          }
        },
        {
          "id": 622968,
          "atomPositionNumber": 0,
          "atomPositionNumberInMol": 45,
          "apClass": {
            "rule": "OPhosphiteSub",
            "subClass": 1,
            "bndTyp": "SINGLE"
          },
          "dirVec": {
            "x": 0.0564,
            "y": 5.2897,
            "z": 1.9394
          }
        }
      ],
      "lstSymAPs": [],
      "mol": {
        "atoms": [
          {
            "elSymbol": "O",
            "p3d": {
              "x": -0.1418,
              "y": 4.2412,
              "z": 2.9314
            }
          }
        ],
        "bonds": []
      },
      "vertexId": 73979,
      "buildingBlockId": 51,
      "buildingBlockType": "FRAGMENT",
      "isRCV": false,
      "properties": {
        "ATTACHMENT_POINTS": "1#LPhosphiteSubO:1:SINGLE:0.7035%2.9119%2.8175,OPhosphiteSub:1:SINGLE:0.0564%5.2897%1.9394 "
      },
      "uniquefyingPropertyKeys": [],
      "allowedMutationTypes": [
        "DELETE",
        "EXTEND",
        "CHANGEBRANCH",
        "CHANGELINK",
        "ADDLINK",
        "DELETELINK",
        "DELETECHAIN"
      ],
      "vertexType": "MolecularFragment"
    },
    {
      "lstAPs": [
        {
          "id": 622999,
          "atomPositionNumber": 0,
          "atomPositionNumberInMol": 46,
          "apClass": {
            "rule": "SubRS",
            "subClass": 1,
            "bndTyp": "SINGLE"
          },
          "dirVec": {
            "x": 0.2865,
            "y": 0.3959,
            "z": -0.6387
          }
        }
      ],
      "lstSymAPs": [],
      "mol": {
        "atoms": [
          {
            "elSymbol": "C",
            "p3d": {
              "x": 0.3969,
              "y": -0.0496,
              "z": 0.8235
            }
          },
          {
            "elSymbol": "H",
            "p3d": {
              "x": -0.6146,
              "y": -0.163,
              "z": 1.2402
            }
          },
          {
            "elSymbol": "H",
            "p3d": {
              "x": 0.9335,
              "y": -0.9979,
              "z": 0.8998
            }
          },
          {
            "elSymbol": "H",
            "p3d": {
              "x": 0.9252,
              "y": 0.7237,
              "z": 1.3995
            }
          }
        ],
        "bonds": [
          {
            "atomIds": [
              0,
              1
            ],
            "bo": "SINGLE"
          },
          {
            "atomIds": [
              0,
              2
            ],
            "bo": "SINGLE"
          },
          {
            "atomIds": [
              0,
              3
            ],
            "bo": "SINGLE"
          }
        ]
      },
      "vertexId": 560857,
      "buildingBlockId": 30,
      "buildingBlockType": "FRAGMENT",
      "isRCV": false,
      "properties": {
        "ATTACHMENT_POINTS": "1#SubRS:1:SINGLE:0.2865%0.3959%-0.6387 "
      },
      "uniquefyingPropertyKeys": [],
      "allowedMutationTypes": [
        "DELETE",
        "EXTEND",
        "CHANGEBRANCH",
        "CHANGELINK",
        "ADDLINK",
        "DELETELINK",
        "DELETECHAIN"
      ],
      "vertexType": "MolecularFragment"
    }
  ],
  "gEdges": [
    {
      "srcAPID": 622960,
      "trgAPID": 622963,
      "bondType": "SINGLE"
    },
    {
      "srcAPID": 622962,
      "trgAPID": 622965,
      "bondType": "SINGLE"
    },
    {
      "srcAPID": 622961,
      "trgAPID": 622966,
      "bondType": "SINGLE"
    },
    {
      "srcAPID": 622964,
      "trgAPID": 622967,
      "bondType": "SINGLE"
    },
    {
      "srcAPID": 622968,
      "trgAPID": 622999,
      "bondType": "SINGLE"
    }
  ],
  "gRings": [],
  "symVertices": []
}

> <SMILES>
[Pt](C#O)(OC([H])([H])[H])([P]1(OC2=C([H])C([H])=C3C([H])=C([H])C([H])=C(C3=C2C=4C(=C(C(=C5C(=C(C(=C(C45)[H])[H])[H])[H])[H])[H])O1)[H])OC([H])([H])[H])OC([H])([H])[H]

$$$$
