M00003629
  CDK     04222210013D

 59 61  0  0  0  0  0  0  0  0999 V2000
   -1.5699    0.0021    0.0133 Pt  0  0  0  0  0  0  0  0  0  0  0  0
   -3.4829    0.0016   -0.0055 C   0  0  0  0  0  0  0  0  0  0  0  0
   -4.6290    0.0002   -0.0172 O   0  0  0  0  0  0  0  0  0  0  0  0
   -1.6883    0.6766    2.2460 S   0  0  0  0  0  0  0  0  0  0  0  0
   -2.5789    2.2471    2.0654 C   0  0  0  0  0  0  0  0  0  0  0  0
   -3.6435    2.1072    2.2737 H   0  0  0  0  0  0  0  0  0  0  0  0
   -2.4498    2.6637    1.0598 H   0  0  0  0  0  0  0  0  0  0  0  0
   -2.1752    2.9702    2.7845 H   0  0  0  0  0  0  0  0  0  0  0  0
    1.1570   -1.1788   -0.0875 N   0  0  0  0  0  0  0  0  0  0  0  0
    1.1605    1.1702    0.1568 N   0  0  0  0  0  0  0  0  0  0  0  0
    0.4695   -0.0018    0.0288 C   0  0  0  0  0  0  0  0  0  0  0  0
    2.6434   -1.2247    0.0564 C   0  0  0  0  0  0  0  0  0  0  0  0
    3.0424   -2.1551   -0.4048 H   0  0  0  0  0  0  0  0  0  0  0  0
    2.8923   -1.2711    1.1418 H   0  0  0  0  0  0  0  0  0  0  0  0
    3.2548    0.0194   -0.5946 C   0  0  0  0  0  0  0  0  0  0  0  0
    3.0741    0.0054   -1.6903 H   0  0  0  0  0  0  0  0  0  0  0  0
    4.3547    0.0228   -0.4694 H   0  0  0  0  0  0  0  0  0  0  0  0
    2.6488    1.2778    0.0283 C   0  0  0  0  0  0  0  0  0  0  0  0
    3.0781    1.4618    1.0467 H   0  0  0  0  0  0  0  0  0  0  0  0
    2.8841    2.1735   -0.5920 H   0  0  0  0  0  0  0  0  0  0  0  0
    0.5060    2.4390    0.4419 C   0  0  0  0  0  0  0  0  0  0  0  0
   -0.5368    4.9873    0.9363 C   0  0  0  0  0  0  0  0  0  0  0  0
    0.7024    3.0439    1.7101 C   0  0  0  0  0  0  0  0  0  0  0  0
   -0.2409    3.0937   -0.5623 C   0  0  0  0  0  0  0  0  0  0  0  0
   -0.7541    4.3753   -0.2964 C   0  0  0  0  0  0  0  0  0  0  0  0
    0.1800    4.3252    1.9352 C   0  0  0  0  0  0  0  0  0  0  0  0
   -1.3273    4.8918   -1.0648 H   0  0  0  0  0  0  0  0  0  0  0  0
    0.3271    4.8050    2.9011 H   0  0  0  0  0  0  0  0  0  0  0  0
   -0.9327    5.9854    1.1249 H   0  0  0  0  0  0  0  0  0  0  0  0
    1.4279    2.3481    2.8128 C   0  0  0  0  0  0  0  0  0  0  0  0
    1.5707    2.9824    3.6965 H   0  0  0  0  0  0  0  0  0  0  0  0
    2.4191    1.9832    2.5049 H   0  0  0  0  0  0  0  0  0  0  0  0
    0.8417    1.4681    3.1454 H   0  0  0  0  0  0  0  0  0  0  0  0
   -0.5286    2.4668   -1.8826 C   0  0  0  0  0  0  0  0  0  0  0  0
   -1.5205    1.9704   -1.8619 H   0  0  0  0  0  0  0  0  0  0  0  0
    0.2013    1.7008   -2.1811 H   0  0  0  0  0  0  0  0  0  0  0  0
   -0.5648    3.2014   -2.6986 H   0  0  0  0  0  0  0  0  0  0  0  0
    0.5138   -2.4517   -0.3681 C   0  0  0  0  0  0  0  0  0  0  0  0
   -0.5112   -5.0108   -0.8458 C   0  0  0  0  0  0  0  0  0  0  0  0
    0.7250   -3.0691   -1.6278 C   0  0  0  0  0  0  0  0  0  0  0  0
   -0.2436   -3.0978    0.6340 C   0  0  0  0  0  0  0  0  0  0  0  0
   -0.7476   -4.3849    0.3762 C   0  0  0  0  0  0  0  0  0  0  0  0
    0.2138   -4.3562   -1.8439 C   0  0  0  0  0  0  0  0  0  0  0  0
   -1.3286   -4.8948    1.1432 H   0  0  0  0  0  0  0  0  0  0  0  0
    0.3763   -4.8467   -2.8018 H   0  0  0  0  0  0  0  0  0  0  0  0
   -0.8992   -6.0132   -1.0272 H   0  0  0  0  0  0  0  0  0  0  0  0
    1.4678   -2.3842   -2.7266 C   0  0  0  0  0  0  0  0  0  0  0  0
    1.0935   -1.3530   -2.8644 H   0  0  0  0  0  0  0  0  0  0  0  0
    1.3351   -2.8848   -3.6957 H   0  0  0  0  0  0  0  0  0  0  0  0
    2.5449   -2.3335   -2.5303 H   0  0  0  0  0  0  0  0  0  0  0  0
   -0.5537   -2.4566    1.9423 C   0  0  0  0  0  0  0  0  0  0  0  0
    0.1699   -1.6864    2.2445 H   0  0  0  0  0  0  0  0  0  0  0  0
   -0.6022   -3.1820    2.7658 H   0  0  0  0  0  0  0  0  0  0  0  0
   -1.5461   -1.9626    1.8994 H   0  0  0  0  0  0  0  0  0  0  0  0
   -1.6267   -0.6747   -2.2202 S   0  0  0  0  0  0  0  0  0  0  0  0
   -2.5161   -2.2479   -2.0561 C   0  0  0  0  0  0  0  0  0  0  0  0
   -3.5747   -2.1134   -2.2961 H   0  0  0  0  0  0  0  0  0  0  0  0
   -2.4146   -2.6578   -1.0447 H   0  0  0  0  0  0  0  0  0  0  0  0
   -2.0886   -2.9737   -2.7585 H   0  0  0  0  0  0  0  0  0  0  0  0
  2  3  3  0  0  0  0
  1  2  1  0  0  0  0
  5  6  1  0  0  0  0
  5  7  1  0  0  0  0
  5  8  1  0  0  0  0
  4  5  1  0  0  0  0
  1  4  1  0  0  0  0
  9 11  1  0  0  0  0
 10 11  1  0  0  0  0
 12  9  1  0  0  0  0
 13 12  1  0  0  0  0
 14 12  1  0  0  0  0
 15 12  1  0  0  0  0
 16 15  1  0  0  0  0
 17 15  1  0  0  0  0
 18 10  1  0  0  0  0
 19 18  1  0  0  0  0
 20 18  1  0  0  0  0
 15 18  1  0  0  0  0
  1 11  1  0  0  0  0
 21 24  1  0  0  0  0
 24 25  2  0  0  0  0
 22 25  1  0  0  0  0
 22 26  2  0  0  0  0
 23 26  1  0  0  0  0
 21 23  2  0  0  0  0
 25 27  1  0  0  0  0
 26 28  1  0  0  0  0
 22 29  1  0  0  0  0
 30 31  1  0  0  0  0
 30 32  1  0  0  0  0
 30 33  1  0  0  0  0
 23 30  1  0  0  0  0
 34 35  1  0  0  0  0
 34 36  1  0  0  0  0
 34 37  1  0  0  0  0
 24 34  1  0  0  0  0
 10 21  1  0  0  0  0
 38 41  1  0  0  0  0
 41 42  2  0  0  0  0
 39 42  1  0  0  0  0
 39 43  2  0  0  0  0
 40 43  1  0  0  0  0
 38 40  2  0  0  0  0
 42 44  1  0  0  0  0
 43 45  1  0  0  0  0
 39 46  1  0  0  0  0
 47 48  1  0  0  0  0
 47 49  1  0  0  0  0
 47 50  1  0  0  0  0
 40 47  1  0  0  0  0
 51 52  1  0  0  0  0
 51 53  1  0  0  0  0
 51 54  1  0  0  0  0
 41 51  1  0  0  0  0
  9 38  1  0  0  0  0
 56 57  1  0  0  0  0
 56 58  1  0  0  0  0
 56 59  1  0  0  0  0
 55 56  1  0  0  0  0
  1 55  1  0  0  0  0
M  END
> <PM6_ENERGY>
64.342

> <UID>
VANBHFICZUDGIQ-UVGCSUJWNA-L

> <FITNESS>
1.14616

> <GCODE>
4344

> <GraphENC>
4344 72_1_0,79_64_1,91_13_1,85_64_1,84329_38_1,84203_38_1, 72_0_79_0_SINGLE_Xlig:0_Xlig:1,72_2_91_2_SINGLE_scaff:0_M6HPyrimidinylidene:1,72_1_85_0_SINGLE_Xlig:0_Xlig:1,91_1_84329_0_SINGLE_L6HPyrimidinylideneSubN:0_SubArL:1,91_0_84203_0_SINGLE_L6HPyrimidinylideneSubN:0_SubArL:1, SymmetricSet [symIds=[84329, 84203]] 

> <GraphJson>
{
  "graphId": 4344,
  "gVertices": [
    {
      "lstAPs": [
        {
          "id": 111185,
          "atomPositionNumber": 0,
          "atomPositionNumberInMol": 0,
          "apClass": {
            "rule": "Xlig",
            "subClass": 0,
            "bndTyp": "SINGLE"
          },
          "dirVec": {
            "x": -2.3339,
            "y": -0.0087,
            "z": 0.8172
          }
        },
        {
          "id": 111186,
          "atomPositionNumber": 0,
          "atomPositionNumberInMol": 0,
          "apClass": {
            "rule": "Xlig",
            "subClass": 0,
            "bndTyp": "SINGLE"
          },
          "dirVec": {
            "x": 2.336,
            "y": -5.0E-4,
            "z": 0.829
          }
        },
        {
          "id": 111187,
          "atomPositionNumber": 0,
          "atomPositionNumberInMol": 0,
          "apClass": {
            "rule": "scaff",
            "subClass": 0,
            "bndTyp": "SINGLE"
          },
          "dirVec": {
            "x": -0.0095,
            "y": 0.0046,
            "z": -1.7113
          }
        }
      ],
      "lstSymAPs": [
        {
          "symIds": [
            0,
            1
          ]
        }
      ],
      "mol": {
        "atoms": [
          {
            "elSymbol": "Pt",
            "p3d": {
              "x": -0.0098,
              "y": 0.0049,
              "z": 0.6289
            }
          },
          {
            "elSymbol": "C",
            "p3d": {
              "x": -6.0E-4,
              "y": 0.0016,
              "z": 2.5609
            }
          },
          {
            "elSymbol": "O",
            "p3d": {
              "x": 0.0025,
              "y": -0.0041,
              "z": 3.6974
            }
          },
          {
            "elSymbol": "Du",
            "p3d": {
              "x": -0.007,
              "y": 1.0013,
              "z": 0.6372
            }
          },
          {
            "elSymbol": "Du",
            "p3d": {
              "x": -0.0014,
              "y": 0.9902,
              "z": 2.5698
            }
          }
        ],
        "bonds": [
          {
            "atomIds": [
              1,
              2
            ],
            "bo": "TRIPLE"
          },
          {
            "atomIds": [
              0,
              1
            ],
            "bo": "SINGLE"
          },
          {
            "atomIds": [
              3,
              0
            ],
            "bo": "SINGLE"
          },
          {
            "atomIds": [
              4,
              1
            ],
            "bo": "SINGLE"
          }
        ]
      },
      "vertexId": 72,
      "buildingBlockId": 0,
      "buildingBlockType": "SCAFFOLD",
      "isRCV": false,
      "properties": {
        "ATTACHMENT_POINTS": "1#Xlig:0:SINGLE:-2.3339%-0.0087%0.8172,Xlig:0:SINGLE:2.3360%-0.0005%0.8290,scaff:0:SINGLE:-0.0095%0.0046%-1.7113 "
      },
      "uniquefyingPropertyKeys": [],
      "allowedMutationTypes": [
        "DELETE",
        "EXTEND",
        "CHANGEBRANCH",
        "CHANGELINK",
        "ADDLINK",
        "DELETELINK",
        "DELETECHAIN"
      ],
      "vertexType": "MolecularFragment"
    },
    {
      "lstAPs": [
        {
          "id": 111188,
          "atomPositionNumber": 0,
          "atomPositionNumberInMol": 5,
          "apClass": {
            "rule": "Xlig",
            "subClass": 1,
            "bndTyp": "SINGLE"
          },
          "dirVec": {
            "x": -0.102,
            "y": 0.0185,
            "z": -1.0265
          }
        }
      ],
      "lstSymAPs": [],
      "mol": {
        "atoms": [
          {
            "elSymbol": "S",
            "p3d": {
              "x": -0.3267,
              "y": 2.3403,
              "z": -1.0022
            }
          },
          {
            "elSymbol": "C",
            "p3d": {
              "x": -0.626,
              "y": 2.4866,
              "z": 0.7805
            }
          },
          {
            "elSymbol": "H",
            "p3d": {
              "x": 0.1766,
              "y": 3.089,
              "z": 1.2414
            }
          },
          {
            "elSymbol": "H",
            "p3d": {
              "x": -0.651,
              "y": 1.5065,
              "z": 1.2643
            }
          },
          {
            "elSymbol": "H",
            "p3d": {
              "x": -1.5658,
              "y": 2.981,
              "z": 0.9515
            }
          }
        ],
        "bonds": [
          {
            "atomIds": [
              1,
              2
            ],
            "bo": "SINGLE"
          },
          {
            "atomIds": [
              1,
              3
            ],
            "bo": "SINGLE"
          },
          {
            "atomIds": [
              1,
              4
            ],
            "bo": "SINGLE"
          },
          {
            "atomIds": [
              0,
              1
            ],
            "bo": "SINGLE"
          }
        ]
      },
      "vertexId": 79,
      "buildingBlockId": 63,
      "buildingBlockType": "FRAGMENT",
      "isRCV": false,
      "properties": {
        "ATTACHMENT_POINTS": "1#Xlig:1:SINGLE:-0.1020%0.0185%-1.0265 "
      },
      "uniquefyingPropertyKeys": [],
      "allowedMutationTypes": [
        "DELETE",
        "EXTEND",
        "CHANGEBRANCH",
        "CHANGELINK",
        "ADDLINK",
        "DELETELINK",
        "DELETECHAIN"
      ],
      "vertexType": "MolecularFragment"
    },
    {
      "lstAPs": [
        {
          "id": 111189,
          "atomPositionNumber": 0,
          "atomPositionNumberInMol": 10,
          "apClass": {
            "rule": "L6HPyrimidinylideneSubN",
            "subClass": 0,
            "bndTyp": "SINGLE"
          },
          "dirVec": {
            "x": 3.6986,
            "y": 10.1321,
            "z": 12.1775
          }
        },
        {
          "id": 111190,
          "atomPositionNumber": 1,
          "atomPositionNumberInMol": 11,
          "apClass": {
            "rule": "L6HPyrimidinylideneSubN",
            "subClass": 0,
            "bndTyp": "SINGLE"
          },
          "dirVec": {
            "x": 4.7983,
            "y": 14.0099,
            "z": 14.7771
          }
        },
        {
          "id": 111191,
          "atomPositionNumber": 2,
          "atomPositionNumberInMol": 12,
          "apClass": {
            "rule": "M6HPyrimidinylidene",
            "subClass": 1,
            "bndTyp": "SINGLE"
          },
          "dirVec": {
            "x": 6.012,
            "y": 12.0516,
            "z": 12.7188
          }
        }
      ],
      "lstSymAPs": [
        {
          "symIds": [
            0,
            1
          ]
        }
      ],
      "mol": {
        "atoms": [
          {
            "elSymbol": "N",
            "p3d": {
              "x": 3.3266,
              "y": 11.1346,
              "z": 13.1445
            }
          },
          {
            "elSymbol": "N",
            "p3d": {
              "x": 3.8396,
              "y": 13.0125,
              "z": 14.3399
            }
          },
          {
            "elSymbol": "C",
            "p3d": {
              "x": 4.223,
              "y": 12.0593,
              "z": 13.4858
            }
          },
          {
            "elSymbol": "C",
            "p3d": {
              "x": 1.9257,
              "y": 11.1023,
              "z": 13.6161
            }
          },
          {
            "elSymbol": "H",
            "p3d": {
              "x": 1.5873,
              "y": 10.0735,
              "z": 13.6893
            }
          },
          {
            "elSymbol": "H",
            "p3d": {
              "x": 1.2755,
              "y": 11.6279,
              "z": 12.9065
            }
          },
          {
            "elSymbol": "C",
            "p3d": {
              "x": 1.8556,
              "y": 11.7608,
              "z": 14.9634
            }
          },
          {
            "elSymbol": "H",
            "p3d": {
              "x": 2.3477,
              "y": 11.1349,
              "z": 15.7024
            }
          },
          {
            "elSymbol": "H",
            "p3d": {
              "x": 0.8059,
              "y": 11.86,
              "z": 15.2619
            }
          },
          {
            "elSymbol": "C",
            "p3d": {
              "x": 2.4969,
              "y": 13.1208,
              "z": 14.9163
            }
          },
          {
            "elSymbol": "H",
            "p3d": {
              "x": 1.8796,
              "y": 13.7836,
              "z": 14.3197
            }
          },
          {
            "elSymbol": "H",
            "p3d": {
              "x": 2.5543,
              "y": 13.5401,
              "z": 15.9154
            }
          }
        ],
        "bonds": [
          {
            "atomIds": [
              0,
              2
            ],
            "bo": "SINGLE"
          },
          {
            "atomIds": [
              1,
              2
            ],
            "bo": "SINGLE"
          },
          {
            "atomIds": [
              3,
              0
            ],
            "bo": "SINGLE"
          },
          {
            "atomIds": [
              4,
              3
            ],
            "bo": "SINGLE"
          },
          {
            "atomIds": [
              5,
              3
            ],
            "bo": "SINGLE"
          },
          {
            "atomIds": [
              6,
              3
            ],
            "bo": "SINGLE"
          },
          {
            "atomIds": [
              7,
              6
            ],
            "bo": "SINGLE"
          },
          {
            "atomIds": [
              8,
              6
            ],
            "bo": "SINGLE"
          },
          {
            "atomIds": [
              9,
              1
            ],
            "bo": "SINGLE"
          },
          {
            "atomIds": [
              10,
              9
            ],
            "bo": "SINGLE"
          },
          {
            "atomIds": [
              11,
              9
            ],
            "bo": "SINGLE"
          },
          {
            "atomIds": [
              6,
              9
            ],
            "bo": "SINGLE"
          }
        ]
      },
      "vertexId": 91,
      "buildingBlockId": 12,
      "buildingBlockType": "FRAGMENT",
      "isRCV": false,
      "properties": {
        "ATTACHMENT_POINTS": "1#L6HPyrimidinylideneSubN:0:SINGLE:3.6986%10.1321%12.1775 2#L6HPyrimidinylideneSubN:0:SINGLE:4.7983%14.0099%14.7771 3#M6HPyrimidinylidene:1:SINGLE:6.0120%12.0516%12.7188 "
      },
      "uniquefyingPropertyKeys": [],
      "allowedMutationTypes": [
        "DELETE",
        "EXTEND",
        "CHANGEBRANCH",
        "CHANGELINK",
        "ADDLINK",
        "DELETELINK",
        "DELETECHAIN"
      ],
      "vertexType": "MolecularFragment"
    },
    {
      "lstAPs": [
        {
          "id": 111192,
          "atomPositionNumber": 0,
          "atomPositionNumberInMol": 56,
          "apClass": {
            "rule": "Xlig",
            "subClass": 1,
            "bndTyp": "SINGLE"
          },
          "dirVec": {
            "x": -0.102,
            "y": 0.0185,
            "z": -1.0265
          }
        }
      ],
      "lstSymAPs": [],
      "mol": {
        "atoms": [
          {
            "elSymbol": "S",
            "p3d": {
              "x": -0.3267,
              "y": 2.3403,
              "z": -1.0022
            }
          },
          {
            "elSymbol": "C",
            "p3d": {
              "x": -0.626,
              "y": 2.4866,
              "z": 0.7805
            }
          },
          {
            "elSymbol": "H",
            "p3d": {
              "x": 0.1766,
              "y": 3.089,
              "z": 1.2414
            }
          },
          {
            "elSymbol": "H",
            "p3d": {
              "x": -0.651,
              "y": 1.5065,
              "z": 1.2643
            }
          },
          {
            "elSymbol": "H",
            "p3d": {
              "x": -1.5658,
              "y": 2.981,
              "z": 0.9515
            }
          }
        ],
        "bonds": [
          {
            "atomIds": [
              1,
              2
            ],
            "bo": "SINGLE"
          },
          {
            "atomIds": [
              1,
              3
            ],
            "bo": "SINGLE"
          },
          {
            "atomIds": [
              1,
              4
            ],
            "bo": "SINGLE"
          },
          {
            "atomIds": [
              0,
              1
            ],
            "bo": "SINGLE"
          }
        ]
      },
      "vertexId": 85,
      "buildingBlockId": 63,
      "buildingBlockType": "FRAGMENT",
      "isRCV": false,
      "properties": {
        "ATTACHMENT_POINTS": "1#Xlig:1:SINGLE:-0.1020%0.0185%-1.0265 "
      },
      "uniquefyingPropertyKeys": [],
      "allowedMutationTypes": [
        "DELETE",
        "EXTEND",
        "CHANGEBRANCH",
        "CHANGELINK",
        "ADDLINK",
        "DELETELINK",
        "DELETECHAIN"
      ],
      "vertexType": "MolecularFragment"
    },
    {
      "lstAPs": [
        {
          "id": 111223,
          "atomPositionNumber": 0,
          "atomPositionNumberInMol": 22,
          "apClass": {
            "rule": "SubArL",
            "subClass": 1,
            "bndTyp": "SINGLE"
          },
          "dirVec": {
            "x": 0.2957,
            "y": 0.3816,
            "z": -0.6358
          }
        }
      ],
      "lstSymAPs": [],
      "mol": {
        "atoms": [
          {
            "elSymbol": "C",
            "p3d": {
              "x": 1.7088,
              "y": 0.551,
              "z": -1.2192
            }
          },
          {
            "elSymbol": "C",
            "p3d": {
              "x": 4.2535,
              "y": 0.8673,
              "z": -2.2548
            }
          },
          {
            "elSymbol": "C",
            "p3d": {
              "x": 2.3329,
              "y": 1.7979,
              "z": -1.1377
            }
          },
          {
            "elSymbol": "C",
            "p3d": {
              "x": 2.3315,
              "y": -0.5114,
              "z": -1.8171
            }
          },
          {
            "elSymbol": "C",
            "p3d": {
              "x": 3.6062,
              "y": -0.3595,
              "z": -2.3299
            }
          },
          {
            "elSymbol": "C",
            "p3d": {
              "x": 3.6205,
              "y": 1.9526,
              "z": -1.657
            }
          },
          {
            "elSymbol": "H",
            "p3d": {
              "x": 4.116,
              "y": -1.2062,
              "z": -2.8187
            }
          },
          {
            "elSymbol": "H",
            "p3d": {
              "x": 4.1193,
              "y": 2.9144,
              "z": -1.5883
            }
          },
          {
            "elSymbol": "H",
            "p3d": {
              "x": 5.2485,
              "y": 0.9961,
              "z": -2.6688
            }
          },
          {
            "elSymbol": "C",
            "p3d": {
              "x": 1.6389,
              "y": 2.9732,
              "z": -0.4581
            }
          },
          {
            "elSymbol": "H",
            "p3d": {
              "x": 2.3787,
              "y": 3.6649,
              "z": -0.0604
            }
          },
          {
            "elSymbol": "H",
            "p3d": {
              "x": 1.0049,
              "y": 2.601,
              "z": 0.3676
            }
          },
          {
            "elSymbol": "H",
            "p3d": {
              "x": 1.0013,
              "y": 3.4961,
              "z": -1.199
            }
          },
          {
            "elSymbol": "C",
            "p3d": {
              "x": 1.6397,
              "y": -1.8757,
              "z": -1.9164
            }
          },
          {
            "elSymbol": "H",
            "p3d": {
              "x": 2.3747,
              "y": -2.6603,
              "z": -1.9613
            }
          },
          {
            "elSymbol": "H",
            "p3d": {
              "x": 1.0044,
              "y": -1.9015,
              "z": -2.8054
            }
          },
          {
            "elSymbol": "H",
            "p3d": {
              "x": 1.0057,
              "y": -2.0243,
              "z": -1.0149
            }
          }
        ],
        "bonds": [
          {
            "atomIds": [
              0,
              3
            ],
            "bo": "SINGLE"
          },
          {
            "atomIds": [
              3,
              4
            ],
            "bo": "DOUBLE"
          },
          {
            "atomIds": [
              1,
              4
            ],
            "bo": "SINGLE"
          },
          {
            "atomIds": [
              1,
              5
            ],
            "bo": "DOUBLE"
          },
          {
            "atomIds": [
              2,
              5
            ],
            "bo": "SINGLE"
          },
          {
            "atomIds": [
              0,
              2
            ],
            "bo": "DOUBLE"
          },
          {
            "atomIds": [
              4,
              6
            ],
            "bo": "SINGLE"
          },
          {
            "atomIds": [
              5,
              7
            ],
            "bo": "SINGLE"
          },
          {
            "atomIds": [
              1,
              8
            ],
            "bo": "SINGLE"
          },
          {
            "atomIds": [
              9,
              10
            ],
            "bo": "SINGLE"
          },
          {
            "atomIds": [
              9,
              11
            ],
            "bo": "SINGLE"
          },
          {
            "atomIds": [
              9,
              12
            ],
            "bo": "SINGLE"
          },
          {
            "atomIds": [
              2,
              9
            ],
            "bo": "SINGLE"
          },
          {
            "atomIds": [
              13,
              14
            ],
            "bo": "SINGLE"
          },
          {
            "atomIds": [
              13,
              15
            ],
            "bo": "SINGLE"
          },
          {
            "atomIds": [
              13,
              16
            ],
            "bo": "SINGLE"
          },
          {
            "atomIds": [
              3,
              13
            ],
            "bo": "SINGLE"
          }
        ]
      },
      "vertexId": 84329,
      "buildingBlockId": 37,
      "buildingBlockType": "FRAGMENT",
      "isRCV": false,
      "properties": {
        "ATTACHMENT_POINTS": "1#SubArL:1:SINGLE:0.2957%0.3816%-0.6358 "
      },
      "uniquefyingPropertyKeys": [],
      "allowedMutationTypes": [
        "DELETE",
        "EXTEND",
        "CHANGEBRANCH",
        "CHANGELINK",
        "ADDLINK",
        "DELETELINK",
        "DELETECHAIN"
      ],
      "vertexType": "MolecularFragment"
    },
    {
      "lstAPs": [
        {
          "id": 111224,
          "atomPositionNumber": 0,
          "atomPositionNumberInMol": 39,
          "apClass": {
            "rule": "SubArL",
            "subClass": 1,
            "bndTyp": "SINGLE"
          },
          "dirVec": {
            "x": 0.2957,
            "y": 0.3816,
            "z": -0.6358
          }
        }
      ],
      "lstSymAPs": [],
      "mol": {
        "atoms": [
          {
            "elSymbol": "C",
            "p3d": {
              "x": 1.7088,
              "y": 0.551,
              "z": -1.2192
            }
          },
          {
            "elSymbol": "C",
            "p3d": {
              "x": 4.2535,
              "y": 0.8673,
              "z": -2.2548
            }
          },
          {
            "elSymbol": "C",
            "p3d": {
              "x": 2.3329,
              "y": 1.7979,
              "z": -1.1377
            }
          },
          {
            "elSymbol": "C",
            "p3d": {
              "x": 2.3315,
              "y": -0.5114,
              "z": -1.8171
            }
          },
          {
            "elSymbol": "C",
            "p3d": {
              "x": 3.6062,
              "y": -0.3595,
              "z": -2.3299
            }
          },
          {
            "elSymbol": "C",
            "p3d": {
              "x": 3.6205,
              "y": 1.9526,
              "z": -1.657
            }
          },
          {
            "elSymbol": "H",
            "p3d": {
              "x": 4.116,
              "y": -1.2062,
              "z": -2.8187
            }
          },
          {
            "elSymbol": "H",
            "p3d": {
              "x": 4.1193,
              "y": 2.9144,
              "z": -1.5883
            }
          },
          {
            "elSymbol": "H",
            "p3d": {
              "x": 5.2485,
              "y": 0.9961,
              "z": -2.6688
            }
          },
          {
            "elSymbol": "C",
            "p3d": {
              "x": 1.6389,
              "y": 2.9732,
              "z": -0.4581
            }
          },
          {
            "elSymbol": "H",
            "p3d": {
              "x": 2.3787,
              "y": 3.6649,
              "z": -0.0604
            }
          },
          {
            "elSymbol": "H",
            "p3d": {
              "x": 1.0049,
              "y": 2.601,
              "z": 0.3676
            }
          },
          {
            "elSymbol": "H",
            "p3d": {
              "x": 1.0013,
              "y": 3.4961,
              "z": -1.199
            }
          },
          {
            "elSymbol": "C",
            "p3d": {
              "x": 1.6397,
              "y": -1.8757,
              "z": -1.9164
            }
          },
          {
            "elSymbol": "H",
            "p3d": {
              "x": 2.3747,
              "y": -2.6603,
              "z": -1.9613
            }
          },
          {
            "elSymbol": "H",
            "p3d": {
              "x": 1.0044,
              "y": -1.9015,
              "z": -2.8054
            }
          },
          {
            "elSymbol": "H",
            "p3d": {
              "x": 1.0057,
              "y": -2.0243,
              "z": -1.0149
            }
          }
        ],
        "bonds": [
          {
            "atomIds": [
              0,
              3
            ],
            "bo": "SINGLE"
          },
          {
            "atomIds": [
              3,
              4
            ],
            "bo": "DOUBLE"
          },
          {
            "atomIds": [
              1,
              4
            ],
            "bo": "SINGLE"
          },
          {
            "atomIds": [
              1,
              5
            ],
            "bo": "DOUBLE"
          },
          {
            "atomIds": [
              2,
              5
            ],
            "bo": "SINGLE"
          },
          {
            "atomIds": [
              0,
              2
            ],
            "bo": "DOUBLE"
          },
          {
            "atomIds": [
              4,
              6
            ],
            "bo": "SINGLE"
          },
          {
            "atomIds": [
              5,
              7
            ],
            "bo": "SINGLE"
          },
          {
            "atomIds": [
              1,
              8
            ],
            "bo": "SINGLE"
          },
          {
            "atomIds": [
              9,
              10
            ],
            "bo": "SINGLE"
          },
          {
            "atomIds": [
              9,
              11
            ],
            "bo": "SINGLE"
          },
          {
            "atomIds": [
              9,
              12
            ],
            "bo": "SINGLE"
          },
          {
            "atomIds": [
              2,
              9
            ],
            "bo": "SINGLE"
          },
          {
            "atomIds": [
              13,
              14
            ],
            "bo": "SINGLE"
          },
          {
            "atomIds": [
              13,
              15
            ],
            "bo": "SINGLE"
          },
          {
            "atomIds": [
              13,
              16
            ],
            "bo": "SINGLE"
          },
          {
            "atomIds": [
              3,
              13
            ],
            "bo": "SINGLE"
          }
        ]
      },
      "vertexId": 84203,
      "buildingBlockId": 37,
      "buildingBlockType": "FRAGMENT",
      "isRCV": false,
      "properties": {
        "ATTACHMENT_POINTS": "1#SubArL:1:SINGLE:0.2957%0.3816%-0.6358 "
      },
      "uniquefyingPropertyKeys": [],
      "allowedMutationTypes": [
        "DELETE",
        "EXTEND",
        "CHANGEBRANCH",
        "CHANGELINK",
        "ADDLINK",
        "DELETELINK",
        "DELETECHAIN"
      ],
      "vertexType": "MolecularFragment"
    }
  ],
  "gEdges": [
    {
      "srcAPID": 111185,
      "trgAPID": 111188,
      "bondType": "SINGLE"
    },
    {
      "srcAPID": 111187,
      "trgAPID": 111191,
      "bondType": "SINGLE"
    },
    {
      "srcAPID": 111186,
      "trgAPID": 111192,
      "bondType": "SINGLE"
    },
    {
      "srcAPID": 111190,
      "trgAPID": 111223,
      "bondType": "SINGLE"
    },
    {
      "srcAPID": 111189,
      "trgAPID": 111224,
      "bondType": "SINGLE"
    }
  ],
  "gRings": [],
  "symVertices": [
    {
      "symIds": [
        84329,
        84203
      ]
    }
  ]
}

> <SMILES>
[Pt](C#O)(SC([H])([H])[H])([C]1N(C([H])([H])C([H])([H])C(N1C=2C(=C(C(=C(C2C([H])([H])[H])[H])[H])[H])C([H])([H])[H])([H])[H])C=3C(=C(C(=C(C3C([H])([H])[H])[H])[H])[H])C([H])([H])[H])SC([H])([H])[H]

$$$$
