M00005950
  CDK     04222210503D

 29 30  0  0  0  0  0  0  0  0999 V2000
   -2.4227   -0.7552   -0.4958 Pt  0  0  0  0  0  0  0  0  0  0  0  0
   -4.3554   -0.7970   -0.7990 C   0  0  0  0  0  0  0  0  0  0  0  0
   -5.4804   -0.8085   -0.9881 O   0  0  0  0  0  0  0  0  0  0  0  0
   -1.7621    0.9199   -1.5090 O   0  0  0  0  0  0  0  0  0  0  0  0
   -2.3746    2.1063   -1.0371 C   0  0  0  0  0  0  0  0  0  0  0  0
   -3.4558    2.0461   -1.2078 H   0  0  0  0  0  0  0  0  0  0  0  0
   -1.9378    2.9180   -1.6368 H   0  0  0  0  0  0  0  0  0  0  0  0
   -2.1472    2.2545    0.0264 H   0  0  0  0  0  0  0  0  0  0  0  0
   -0.1953   -0.4296   -0.3779 P   0  0  0  0  0  0  0  0  0  0  0  0
    0.2542    1.0693    0.3260 O   0  0  0  0  0  0  0  0  0  0  0  0
    0.7927   -1.4493    0.6043 O   0  0  0  0  0  0  0  0  0  0  0  0
    1.2394    0.7762    1.2748 C   0  0  0  0  0  0  0  0  0  0  0  0
    1.5300   -0.6058    1.4285 C   0  0  0  0  0  0  0  0  0  0  0  0
    2.4720   -1.0503    2.3404 C   0  0  0  0  0  0  0  0  0  0  0  0
    3.1296   -0.0667    3.1038 C   0  0  0  0  0  0  0  0  0  0  0  0
    2.8453    1.2912    2.9498 C   0  0  0  0  0  0  0  0  0  0  0  0
    1.8849    1.7436    2.0242 C   0  0  0  0  0  0  0  0  0  0  0  0
   -0.1588   -1.7418   -2.7487 C   0  0  0  0  0  0  0  0  0  0  0  0
    0.5388   -0.5655   -2.0846 C   0  0  0  0  0  0  0  0  0  0  0  0
   -1.2594   -1.6284   -2.7879 H   0  0  0  0  0  0  0  0  0  0  0  0
    0.1677   -1.8343   -3.7971 H   0  0  0  0  0  0  0  0  0  0  0  0
    0.0674   -2.7110   -2.2772 H   0  0  0  0  0  0  0  0  0  0  0  0
    1.6386   -0.6899   -2.0592 H   0  0  0  0  0  0  0  0  0  0  0  0
    0.3333    0.3823   -2.6443 H   0  0  0  0  0  0  0  0  0  0  0  0
    3.8769   -0.3828    3.8332 H   0  0  0  0  0  0  0  0  0  0  0  0
    3.3732    2.0261    3.5588 H   0  0  0  0  0  0  0  0  0  0  0  0
    2.6845   -2.1110    2.4604 H   0  0  0  0  0  0  0  0  0  0  0  0
    1.6558    2.8001    1.9033 H   0  0  0  0  0  0  0  0  0  0  0  0
   -2.9346   -2.7064    0.6166 Cl  0  0  0  0  0  0  0  0  0  0  0  0
  2  3  3  0  0  0  0
  1  2  1  0  0  0  0
  5  6  1  0  0  0  0
  5  7  1  0  0  0  0
  5  8  1  0  0  0  0
  4  5  1  0  0  0  0
  1  4  1  0  0  0  0
 10  9  1  0  0  0  0
 11  9  1  0  0  0  0
 12 10  1  0  0  0  0
 12 13  2  0  0  0  0
 13 11  1  0  0  0  0
 14 13  1  0  0  0  0
 15 14  2  0  0  0  0
 16 15  1  0  0  0  0
 16 17  2  0  0  0  0
 17 12  1  0  0  0  0
  1  9  1  0  0  0  0
 18 19  1  0  0  0  0
 18 20  1  0  0  0  0
 18 21  1  0  0  0  0
 18 22  1  0  0  0  0
 19 23  1  0  0  0  0
 19 24  1  0  0  0  0
  9 19  1  0  0  0  0
 15 25  1  0  0  0  0
 16 26  1  0  0  0  0
 14 27  1  0  0  0  0
 17 28  1  0  0  0  0
  1 29  1  0  0  0  0
M  END
> <PM6_ENERGY>
-622.753

> <UID>
HADDGRLXBTYPIZ-HKMJKZILNA-M

> <FITNESS>
1.14084

> <GCODE>
6771

> <GraphENC>
6771 72_1_0,80_65_1,121_61_1,88_67_1,134671_32_1,134685_1_2,134688_1_2,134682_1_2,134691_1_2, 72_0_80_0_SINGLE_Xlig:0_Xlig:1,72_2_121_1_SINGLE_scaff:0_MPhosphonite:1,72_1_88_0_SINGLE_Xlig:0_Xlig:1,121_0_134671_0_SINGLE_LPhosphoniteSubR:0_SubRS:1,121_3_134685_0_SINGLE_sArCl:1_hyd:1,121_4_134688_0_SINGLE_sArCl:1_hyd:1,121_2_134682_0_SINGLE_sArCl:1_hyd:1,121_5_134691_0_SINGLE_sArCl:1_hyd:1, 

> <GraphJson>
{
  "graphId": 6771,
  "gVertices": [
    {
      "lstAPs": [
        {
          "id": 176504,
          "atomPositionNumber": 0,
          "atomPositionNumberInMol": 0,
          "apClass": {
            "rule": "Xlig",
            "subClass": 0,
            "bndTyp": "SINGLE"
          },
          "dirVec": {
            "x": -2.3339,
            "y": -0.0087,
            "z": 0.8172
          }
        },
        {
          "id": 176505,
          "atomPositionNumber": 0,
          "atomPositionNumberInMol": 0,
          "apClass": {
            "rule": "Xlig",
            "subClass": 0,
            "bndTyp": "SINGLE"
          },
          "dirVec": {
            "x": 2.336,
            "y": -5.0E-4,
            "z": 0.829
          }
        },
        {
          "id": 176506,
          "atomPositionNumber": 0,
          "atomPositionNumberInMol": 0,
          "apClass": {
            "rule": "scaff",
            "subClass": 0,
            "bndTyp": "SINGLE"
          },
          "dirVec": {
            "x": -0.0095,
            "y": 0.0046,
            "z": -1.7113
          }
        }
      ],
      "lstSymAPs": [
        {
          "symIds": [
            0,
            1
          ]
        }
      ],
      "mol": {
        "atoms": [
          {
            "elSymbol": "Pt",
            "p3d": {
              "x": -0.0098,
              "y": 0.0049,
              "z": 0.6289
            }
          },
          {
            "elSymbol": "C",
            "p3d": {
              "x": -6.0E-4,
              "y": 0.0016,
              "z": 2.5609
            }
          },
          {
            "elSymbol": "O",
            "p3d": {
              "x": 0.0025,
              "y": -0.0041,
              "z": 3.6974
            }
          },
          {
            "elSymbol": "Du",
            "p3d": {
              "x": -0.007,
              "y": 1.0013,
              "z": 0.6372
            }
          },
          {
            "elSymbol": "Du",
            "p3d": {
              "x": -0.0014,
              "y": 0.9902,
              "z": 2.5698
            }
          }
        ],
        "bonds": [
          {
            "atomIds": [
              1,
              2
            ],
            "bo": "TRIPLE"
          },
          {
            "atomIds": [
              0,
              1
            ],
            "bo": "SINGLE"
          },
          {
            "atomIds": [
              3,
              0
            ],
            "bo": "SINGLE"
          },
          {
            "atomIds": [
              4,
              1
            ],
            "bo": "SINGLE"
          }
        ]
      },
      "vertexId": 72,
      "buildingBlockId": 0,
      "buildingBlockType": "SCAFFOLD",
      "isRCV": false,
      "properties": {
        "ATTACHMENT_POINTS": "1#Xlig:0:SINGLE:-2.3339%-0.0087%0.8172,Xlig:0:SINGLE:2.3360%-0.0005%0.8290,scaff:0:SINGLE:-0.0095%0.0046%-1.7113 "
      },
      "uniquefyingPropertyKeys": [],
      "allowedMutationTypes": [
        "DELETE",
        "EXTEND",
        "CHANGEBRANCH",
        "CHANGELINK",
        "ADDLINK",
        "DELETELINK",
        "DELETECHAIN"
      ],
      "vertexType": "MolecularFragment"
    },
    {
      "lstAPs": [
        {
          "id": 176507,
          "atomPositionNumber": 0,
          "atomPositionNumberInMol": 5,
          "apClass": {
            "rule": "Xlig",
            "subClass": 1,
            "bndTyp": "SINGLE"
          },
          "dirVec": {
            "x": -0.1753,
            "y": 0.0948,
            "z": -0.4464
          }
        }
      ],
      "lstSymAPs": [],
      "mol": {
        "atoms": [
          {
            "elSymbol": "O",
            "p3d": {
              "x": -0.3534,
              "y": 2.1044,
              "z": -0.7339
            }
          },
          {
            "elSymbol": "C",
            "p3d": {
              "x": -0.5345,
              "y": 2.7646,
              "z": 0.4801
            }
          },
          {
            "elSymbol": "H",
            "p3d": {
              "x": -0.3728,
              "y": 3.8337,
              "z": 0.2724
            }
          },
          {
            "elSymbol": "H",
            "p3d": {
              "x": 0.1816,
              "y": 2.4161,
              "z": 1.2384
            }
          },
          {
            "elSymbol": "H",
            "p3d": {
              "x": -1.553,
              "y": 2.6149,
              "z": 0.8489
            }
          }
        ],
        "bonds": [
          {
            "atomIds": [
              1,
              2
            ],
            "bo": "SINGLE"
          },
          {
            "atomIds": [
              1,
              3
            ],
            "bo": "SINGLE"
          },
          {
            "atomIds": [
              1,
              4
            ],
            "bo": "SINGLE"
          },
          {
            "atomIds": [
              0,
              1
            ],
            "bo": "SINGLE"
          }
        ]
      },
      "vertexId": 80,
      "buildingBlockId": 64,
      "buildingBlockType": "FRAGMENT",
      "isRCV": false,
      "properties": {
        "ATTACHMENT_POINTS": "1#Xlig:1:SINGLE:-0.1753%0.0948%-0.4464 "
      },
      "uniquefyingPropertyKeys": [],
      "allowedMutationTypes": [
        "DELETE",
        "EXTEND",
        "CHANGEBRANCH",
        "CHANGELINK",
        "ADDLINK",
        "DELETELINK",
        "DELETECHAIN"
      ],
      "vertexType": "MolecularFragment"
    },
    {
      "lstAPs": [
        {
          "id": 176508,
          "atomPositionNumber": 0,
          "atomPositionNumberInMol": 10,
          "apClass": {
            "rule": "LPhosphoniteSubR",
            "subClass": 0,
            "bndTyp": "SINGLE"
          },
          "dirVec": {
            "x": 4.4068,
            "y": 7.1514,
            "z": 3.225
          }
        },
        {
          "id": 176509,
          "atomPositionNumber": 0,
          "atomPositionNumberInMol": 10,
          "apClass": {
            "rule": "MPhosphonite",
            "subClass": 1,
            "bndTyp": "SINGLE"
          },
          "dirVec": {
            "x": 2.0992,
            "y": 9.8558,
            "z": 2.0523
          }
        },
        {
          "id": 176510,
          "atomPositionNumber": 5,
          "atomPositionNumberInMol": 15,
          "apClass": {
            "rule": "sArCl",
            "subClass": 1,
            "bndTyp": "SINGLE"
          },
          "dirVec": {
            "x": 0.6858,
            "y": 4.225,
            "z": 0.5361
          }
        },
        {
          "id": 176511,
          "atomPositionNumber": 6,
          "atomPositionNumberInMol": 16,
          "apClass": {
            "rule": "sArCl",
            "subClass": 1,
            "bndTyp": "SINGLE"
          },
          "dirVec": {
            "x": -1.3527,
            "y": 2.6941,
            "z": 2.4126
          }
        },
        {
          "id": 176512,
          "atomPositionNumber": 7,
          "atomPositionNumberInMol": 17,
          "apClass": {
            "rule": "sArCl",
            "subClass": 1,
            "bndTyp": "SINGLE"
          },
          "dirVec": {
            "x": -1.5783,
            "y": 3.4734,
            "z": 5.4078
          }
        },
        {
          "id": 176513,
          "atomPositionNumber": 8,
          "atomPositionNumberInMol": 18,
          "apClass": {
            "rule": "sArCl",
            "subClass": 1,
            "bndTyp": "SINGLE"
          },
          "dirVec": {
            "x": 0.1066,
            "y": 5.8434,
            "z": 6.538
          }
        }
      ],
      "lstSymAPs": [
        {
          "symIds": [
            2,
            3,
            4,
            5
          ]
        }
      ],
      "mol": {
        "atoms": [
          {
            "elSymbol": "P",
            "p3d": {
              "x": 2.6785,
              "y": 7.6971,
              "z": 2.9618
            }
          },
          {
            "elSymbol": "O",
            "p3d": {
              "x": 1.8393,
              "y": 7.1782,
              "z": 4.337
            }
          },
          {
            "elSymbol": "O",
            "p3d": {
              "x": 2.0482,
              "y": 6.4774,
              "z": 1.9984
            }
          },
          {
            "elSymbol": "C",
            "p3d": {
              "x": 1.0897,
              "y": 6.0606,
              "z": 4.0384
            }
          },
          {
            "elSymbol": "C",
            "p3d": {
              "x": 1.2045,
              "y": 5.6797,
              "z": 2.7196
            }
          },
          {
            "elSymbol": "C",
            "p3d": {
              "x": 0.4857,
              "y": 4.6461,
              "z": 2.2048
            }
          },
          {
            "elSymbol": "C",
            "p3d": {
              "x": -0.3938,
              "y": 3.9649,
              "z": 3.0541
            }
          },
          {
            "elSymbol": "C",
            "p3d": {
              "x": -0.4923,
              "y": 4.3317,
              "z": 4.3806
            }
          },
          {
            "elSymbol": "C",
            "p3d": {
              "x": 0.2319,
              "y": 5.401,
              "z": 4.8933
            }
          }
        ],
        "bonds": [
          {
            "atomIds": [
              1,
              0
            ],
            "bo": "SINGLE"
          },
          {
            "atomIds": [
              2,
              0
            ],
            "bo": "SINGLE"
          },
          {
            "atomIds": [
              3,
              1
            ],
            "bo": "SINGLE"
          },
          {
            "atomIds": [
              3,
              4
            ],
            "bo": "DOUBLE"
          },
          {
            "atomIds": [
              4,
              2
            ],
            "bo": "SINGLE"
          },
          {
            "atomIds": [
              5,
              4
            ],
            "bo": "SINGLE"
          },
          {
            "atomIds": [
              6,
              5
            ],
            "bo": "DOUBLE"
          },
          {
            "atomIds": [
              7,
              6
            ],
            "bo": "SINGLE"
          },
          {
            "atomIds": [
              7,
              8
            ],
            "bo": "DOUBLE"
          },
          {
            "atomIds": [
              8,
              3
            ],
            "bo": "SINGLE"
          }
        ]
      },
      "vertexId": 121,
      "buildingBlockId": 60,
      "buildingBlockType": "FRAGMENT",
      "isRCV": false,
      "properties": {
        "ATTACHMENT_POINTS": "1#LPhosphoniteSubR:0:SINGLE:4.4068%7.1514%3.2250,MPhosphonite:1:SINGLE:2.0992%9.8558%2.0523 6#sArCl:1:SINGLE:0.6858%4.2250%0.5361 7#sArCl:1:SINGLE:-1.3527%2.6941%2.4126 8#sArCl:1:SINGLE:-1.5783%3.4734%5.4078 9#sArCl:1:SINGLE:0.1066%5.8434%6.5380 "
      },
      "uniquefyingPropertyKeys": [],
      "allowedMutationTypes": [
        "DELETE",
        "EXTEND",
        "CHANGEBRANCH",
        "CHANGELINK",
        "ADDLINK",
        "DELETELINK",
        "DELETECHAIN"
      ],
      "vertexType": "MolecularFragment"
    },
    {
      "lstAPs": [
        {
          "id": 176514,
          "atomPositionNumber": 0,
          "atomPositionNumberInMol": 30,
          "apClass": {
            "rule": "Xlig",
            "subClass": 1,
            "bndTyp": "SINGLE"
          },
          "dirVec": {
            "x": -0.0053,
            "y": -0.0027,
            "z": 0.63
          }
        }
      ],
      "lstSymAPs": [],
      "mol": {
        "atoms": [
          {
            "elSymbol": "Cl",
            "p3d": {
              "x": 2.3243,
              "y": -0.0063,
              "z": 0.8189
            }
          }
        ],
        "bonds": []
      },
      "vertexId": 88,
      "buildingBlockId": 66,
      "buildingBlockType": "FRAGMENT",
      "isRCV": false,
      "properties": {
        "ATTACHMENT_POINTS": "1#Xlig:1:SINGLE:-0.0053%-0.0027%0.6300 "
      },
      "uniquefyingPropertyKeys": [],
      "allowedMutationTypes": [
        "DELETE",
        "EXTEND",
        "CHANGEBRANCH",
        "CHANGELINK",
        "ADDLINK",
        "DELETELINK",
        "DELETECHAIN"
      ],
      "vertexType": "MolecularFragment"
    },
    {
      "lstAPs": [
        {
          "id": 176555,
          "atomPositionNumber": 1,
          "atomPositionNumberInMol": 20,
          "apClass": {
            "rule": "SubRS",
            "subClass": 1,
            "bndTyp": "SINGLE"
          },
          "dirVec": {
            "x": 0.2985,
            "y": 0.384,
            "z": -0.6258
          }
        }
      ],
      "lstSymAPs": [],
      "mol": {
        "atoms": [
          {
            "elSymbol": "C",
            "p3d": {
              "x": -1.0244,
              "y": -0.2225,
              "z": 1.3991
            }
          },
          {
            "elSymbol": "C",
            "p3d": {
              "x": 0.3973,
              "y": -0.042,
              "z": 0.8195
            }
          },
          {
            "elSymbol": "H",
            "p3d": {
              "x": -1.5635,
              "y": -0.9908,
              "z": 0.8263
            }
          },
          {
            "elSymbol": "H",
            "p3d": {
              "x": -0.941,
              "y": -0.535,
              "z": 2.446
            }
          },
          {
            "elSymbol": "H",
            "p3d": {
              "x": -1.5586,
              "y": 0.7335,
              "z": 1.3382
            }
          },
          {
            "elSymbol": "H",
            "p3d": {
              "x": 0.9335,
              "y": 0.7221,
              "z": 1.4011
            }
          },
          {
            "elSymbol": "H",
            "p3d": {
              "x": 0.927,
              "y": -1.0102,
              "z": 0.9001
            }
          }
        ],
        "bonds": [
          {
            "atomIds": [
              0,
              1
            ],
            "bo": "SINGLE"
          },
          {
            "atomIds": [
              0,
              2
            ],
            "bo": "SINGLE"
          },
          {
            "atomIds": [
              0,
              3
            ],
            "bo": "SINGLE"
          },
          {
            "atomIds": [
              0,
              4
            ],
            "bo": "SINGLE"
          },
          {
            "atomIds": [
              1,
              5
            ],
            "bo": "SINGLE"
          },
          {
            "atomIds": [
              1,
              6
            ],
            "bo": "SINGLE"
          }
        ]
      },
      "vertexId": 134671,
      "buildingBlockId": 31,
      "buildingBlockType": "FRAGMENT",
      "isRCV": false,
      "properties": {
        "ATTACHMENT_POINTS": "2#SubRS:1:SINGLE:0.2985%0.3840%-0.6258 "
      },
      "uniquefyingPropertyKeys": [],
      "allowedMutationTypes": [
        "DELETE",
        "EXTEND",
        "CHANGEBRANCH",
        "CHANGELINK",
        "ADDLINK",
        "DELETELINK",
        "DELETECHAIN"
      ],
      "vertexType": "MolecularFragment"
    },
    {
      "lstAPs": [
        {
          "id": 176556,
          "atomPositionNumber": 0,
          "atomPositionNumberInMol": 26,
          "apClass": {
            "rule": "hyd",
            "subClass": 1,
            "bndTyp": "SINGLE"
          },
          "dirVec": {
            "x": 0.4589,
            "y": -1.751,
            "z": 0.3869
          }
        }
      ],
      "lstSymAPs": [],
      "mol": {
        "atoms": [
          {
            "elSymbol": "H",
            "p3d": {
              "x": 0.1925,
              "y": -2.5024,
              "z": 1.1483
            }
          }
        ],
        "bonds": []
      },
      "vertexId": 134685,
      "buildingBlockId": 0,
      "buildingBlockType": "CAP",
      "isRCV": false,
      "properties": {
        "ATTACHMENT_POINTS": "1#hyd:1:SINGLE:0.4589%-1.7510%0.3869 "
      },
      "uniquefyingPropertyKeys": [],
      "allowedMutationTypes": [
        "DELETE",
        "EXTEND",
        "CHANGEBRANCH",
        "CHANGELINK",
        "ADDLINK",
        "DELETELINK",
        "DELETECHAIN"
      ],
      "vertexType": "MolecularFragment"
    },
    {
      "lstAPs": [
        {
          "id": 176557,
          "atomPositionNumber": 0,
          "atomPositionNumberInMol": 27,
          "apClass": {
            "rule": "hyd",
            "subClass": 1,
            "bndTyp": "SINGLE"
          },
          "dirVec": {
            "x": 0.4589,
            "y": -1.751,
            "z": 0.3869
          }
        }
      ],
      "lstSymAPs": [],
      "mol": {
        "atoms": [
          {
            "elSymbol": "H",
            "p3d": {
              "x": 0.1925,
              "y": -2.5024,
              "z": 1.1483
            }
          }
        ],
        "bonds": []
      },
      "vertexId": 134688,
      "buildingBlockId": 0,
      "buildingBlockType": "CAP",
      "isRCV": false,
      "properties": {
        "ATTACHMENT_POINTS": "1#hyd:1:SINGLE:0.4589%-1.7510%0.3869 "
      },
      "uniquefyingPropertyKeys": [],
      "allowedMutationTypes": [
        "DELETE",
        "EXTEND",
        "CHANGEBRANCH",
        "CHANGELINK",
        "ADDLINK",
        "DELETELINK",
        "DELETECHAIN"
      ],
      "vertexType": "MolecularFragment"
    },
    {
      "lstAPs": [
        {
          "id": 176558,
          "atomPositionNumber": 0,
          "atomPositionNumberInMol": 28,
          "apClass": {
            "rule": "hyd",
            "subClass": 1,
            "bndTyp": "SINGLE"
          },
          "dirVec": {
            "x": 0.4589,
            "y": -1.751,
            "z": 0.3869
          }
        }
      ],
      "lstSymAPs": [],
      "mol": {
        "atoms": [
          {
            "elSymbol": "H",
            "p3d": {
              "x": 0.1925,
              "y": -2.5024,
              "z": 1.1483
            }
          }
        ],
        "bonds": []
      },
      "vertexId": 134682,
      "buildingBlockId": 0,
      "buildingBlockType": "CAP",
      "isRCV": false,
      "properties": {
        "ATTACHMENT_POINTS": "1#hyd:1:SINGLE:0.4589%-1.7510%0.3869 "
      },
      "uniquefyingPropertyKeys": [],
      "allowedMutationTypes": [
        "DELETE",
        "EXTEND",
        "CHANGEBRANCH",
        "CHANGELINK",
        "ADDLINK",
        "DELETELINK",
        "DELETECHAIN"
      ],
      "vertexType": "MolecularFragment"
    },
    {
      "lstAPs": [
        {
          "id": 176559,
          "atomPositionNumber": 0,
          "atomPositionNumberInMol": 29,
          "apClass": {
            "rule": "hyd",
            "subClass": 1,
            "bndTyp": "SINGLE"
          },
          "dirVec": {
            "x": 0.4589,
            "y": -1.751,
            "z": 0.3869
          }
        }
      ],
      "lstSymAPs": [],
      "mol": {
        "atoms": [
          {
            "elSymbol": "H",
            "p3d": {
              "x": 0.1925,
              "y": -2.5024,
              "z": 1.1483
            }
          }
        ],
        "bonds": []
      },
      "vertexId": 134691,
      "buildingBlockId": 0,
      "buildingBlockType": "CAP",
      "isRCV": false,
      "properties": {
        "ATTACHMENT_POINTS": "1#hyd:1:SINGLE:0.4589%-1.7510%0.3869 "
      },
      "uniquefyingPropertyKeys": [],
      "allowedMutationTypes": [
        "DELETE",
        "EXTEND",
        "CHANGEBRANCH",
        "CHANGELINK",
        "ADDLINK",
        "DELETELINK",
        "DELETECHAIN"
      ],
      "vertexType": "MolecularFragment"
    }
  ],
  "gEdges": [
    {
      "srcAPID": 176504,
      "trgAPID": 176507,
      "bondType": "SINGLE"
    },
    {
      "srcAPID": 176506,
      "trgAPID": 176509,
      "bondType": "SINGLE"
    },
    {
      "srcAPID": 176505,
      "trgAPID": 176514,
      "bondType": "SINGLE"
    },
    {
      "srcAPID": 176508,
      "trgAPID": 176555,
      "bondType": "SINGLE"
    },
    {
      "srcAPID": 176511,
      "trgAPID": 176556,
      "bondType": "SINGLE"
    },
    {
      "srcAPID": 176512,
      "trgAPID": 176557,
      "bondType": "SINGLE"
    },
    {
      "srcAPID": 176510,
      "trgAPID": 176558,
      "bondType": "SINGLE"
    },
    {
      "srcAPID": 176513,
      "trgAPID": 176559,
      "bondType": "SINGLE"
    }
  ],
  "gRings": [],
  "symVertices": []
}

> <SMILES>
[Pt](C#O)(OC([H])([H])[H])([P]1(OC2=C(O1)C(=C(C(=C2[H])[H])[H])[H])C(C([H])([H])[H])([H])[H])Cl

$$$$
