M00020247
  CDK     04222215553D

 49 50  0  0  0  0  0  0  0  0999 V2000
   -2.3954   -0.5641    0.1179 Pt  0  0  0  0  0  0  0  0  0  0  0  0
   -4.3604   -0.5785    0.0127 C   0  0  0  0  0  0  0  0  0  0  0  0
   -5.4976   -0.5852   -0.0474 O   0  0  0  0  0  0  0  0  0  0  0  0
   -2.6928    1.7458    0.2592 Cl  0  0  0  0  0  0  0  0  0  0  0  0
   -0.1110   -0.5735    0.2238 P   0  0  0  0  0  0  0  0  0  0  0  0
    0.6008    0.0347    1.6046 O   0  0  0  0  0  0  0  0  0  0  0  0
   -0.0563    1.1636    2.1544 C   0  0  0  0  0  0  0  0  0  0  0  0
   -1.0899    3.3630    3.4683 C   0  0  0  0  0  0  0  0  0  0  0  0
   -1.1306    0.9684    3.0435 C   0  0  0  0  0  0  0  0  0  0  0  0
    0.5127    2.4271    1.8994 C   0  0  0  0  0  0  0  0  0  0  0  0
   -0.0263    3.5296    2.5780 C   0  0  0  0  0  0  0  0  0  0  0  0
   -1.6375    2.0991    3.7019 C   0  0  0  0  0  0  0  0  0  0  0  0
    0.3826    4.5231    2.4017 H   0  0  0  0  0  0  0  0  0  0  0  0
   -2.4726    1.9908    4.3919 H   0  0  0  0  0  0  0  0  0  0  0  0
   -1.5017    4.2313    3.9834 H   0  0  0  0  0  0  0  0  0  0  0  0
   -1.7257   -0.3799    3.2749 C   0  0  0  0  0  0  0  0  0  0  0  0
   -2.4688   -0.6344    2.4899 H   0  0  0  0  0  0  0  0  0  0  0  0
   -2.2642   -0.4339    4.2328 H   0  0  0  0  0  0  0  0  0  0  0  0
   -0.9652   -1.1739    3.3043 H   0  0  0  0  0  0  0  0  0  0  0  0
    1.6342    2.5830    0.9329 C   0  0  0  0  0  0  0  0  0  0  0  0
    2.1164    3.5662    0.9948 H   0  0  0  0  0  0  0  0  0  0  0  0
    1.2694    2.4661   -0.1063 H   0  0  0  0  0  0  0  0  0  0  0  0
    2.4112    1.8201    1.0892 H   0  0  0  0  0  0  0  0  0  0  0  0
    0.5553    0.4511   -0.9497 O   0  0  0  0  0  0  0  0  0  0  0  0
    0.8682   -0.2041   -2.1558 C   0  0  0  0  0  0  0  0  0  0  0  0
    1.5845   -1.2974   -4.5965 C   0  0  0  0  0  0  0  0  0  0  0  0
    2.2337   -0.4305   -2.4219 C   0  0  0  0  0  0  0  0  0  0  0  0
   -0.1471   -0.4798   -3.0946 C   0  0  0  0  0  0  0  0  0  0  0  0
    0.2394   -1.0426   -4.3204 C   0  0  0  0  0  0  0  0  0  0  0  0
    2.5753   -0.9904   -3.6611 C   0  0  0  0  0  0  0  0  0  0  0  0
   -0.5200   -1.2776   -5.0660 H   0  0  0  0  0  0  0  0  0  0  0  0
    3.6215   -1.1810   -3.8960 H   0  0  0  0  0  0  0  0  0  0  0  0
    1.8645   -1.7351   -5.5553 H   0  0  0  0  0  0  0  0  0  0  0  0
    3.2883   -0.0846   -1.4271 C   0  0  0  0  0  0  0  0  0  0  0  0
    4.1527    0.3992   -1.9058 H   0  0  0  0  0  0  0  0  0  0  0  0
    3.6653   -0.9771   -0.9082 H   0  0  0  0  0  0  0  0  0  0  0  0
    2.9227    0.6176   -0.6598 H   0  0  0  0  0  0  0  0  0  0  0  0
   -1.5825   -0.1977   -2.8093 C   0  0  0  0  0  0  0  0  0  0  0  0
   -2.0820   -1.0566   -2.3165 H   0  0  0  0  0  0  0  0  0  0  0  0
   -2.1519   -0.0027   -3.7314 H   0  0  0  0  0  0  0  0  0  0  0  0
   -1.7201    0.7039   -2.1800 H   0  0  0  0  0  0  0  0  0  0  0  0
    0.5573   -2.9917    1.3971 C   0  0  0  0  0  0  0  0  0  0  0  0
    0.6731   -2.2647    0.0688 C   0  0  0  0  0  0  0  0  0  0  0  0
    1.0613   -3.9692    1.3379 H   0  0  0  0  0  0  0  0  0  0  0  0
    1.0280   -2.4524    2.2326 H   0  0  0  0  0  0  0  0  0  0  0  0
   -0.4866   -3.2167    1.6736 H   0  0  0  0  0  0  0  0  0  0  0  0
    1.7358   -2.1740   -0.2422 H   0  0  0  0  0  0  0  0  0  0  0  0
    0.1626   -2.8455   -0.7366 H   0  0  0  0  0  0  0  0  0  0  0  0
   -2.6306   -2.8890   -0.0815 Cl  0  0  0  0  0  0  0  0  0  0  0  0
  2  3  3  0  0  0  0
  1  2  1  0  0  0  0
  1  4  1  0  0  0  0
  1  5  1  0  0  0  0
  5  6  1  0  0  0  0
  7 10  1  0  0  0  0
 10 11  2  0  0  0  0
  8 11  1  0  0  0  0
  8 12  2  0  0  0  0
  9 12  1  0  0  0  0
  7  9  2  0  0  0  0
 11 13  1  0  0  0  0
 12 14  1  0  0  0  0
  8 15  1  0  0  0  0
 16 17  1  0  0  0  0
 16 18  1  0  0  0  0
 16 19  1  0  0  0  0
  9 16  1  0  0  0  0
 20 21  1  0  0  0  0
 20 22  1  0  0  0  0
 20 23  1  0  0  0  0
 10 20  1  0  0  0  0
  6  7  1  0  0  0  0
  5 24  1  0  0  0  0
 25 28  1  0  0  0  0
 28 29  2  0  0  0  0
 26 29  1  0  0  0  0
 26 30  2  0  0  0  0
 27 30  1  0  0  0  0
 25 27  2  0  0  0  0
 29 31  1  0  0  0  0
 30 32  1  0  0  0  0
 26 33  1  0  0  0  0
 34 35  1  0  0  0  0
 34 36  1  0  0  0  0
 34 37  1  0  0  0  0
 27 34  1  0  0  0  0
 38 39  1  0  0  0  0
 38 40  1  0  0  0  0
 38 41  1  0  0  0  0
 28 38  1  0  0  0  0
 24 25  1  0  0  0  0
 42 43  1  0  0  0  0
 42 44  1  0  0  0  0
 42 45  1  0  0  0  0
 42 46  1  0  0  0  0
 43 47  1  0  0  0  0
 43 48  1  0  0  0  0
  5 43  1  0  0  0  0
  1 49  1  0  0  0  0
M  END
> <PM6_ENERGY>
-625.387

> <UID>
ZGWMZLICYADMGZ-GNHFENRPNA-L

> <FITNESS>
1.13881

> <GCODE>
21608

> <GraphENC>
21608 72_1_0,82_67_1,122_62_1,88_67_1,357659_63_1,357622_63_1,357626_32_1,509282_38_1,509347_38_1, 72_0_82_0_SINGLE_Xlig:0_Xlig:1,72_2_122_3_SINGLE_scaff:0_MPhosphonite:1,72_1_88_0_SINGLE_Xlig:0_Xlig:1,122_1_357659_0_SINGLE_LPhosphoniteSubO:0_LPhosphoniteSubO:1,122_0_357622_0_SINGLE_LPhosphoniteSubO:0_LPhosphoniteSubO:1,122_2_357626_0_SINGLE_LPhosphoniteSubR:0_SubRS:1,357659_1_509282_0_SINGLE_OPhosphoniteSub:1_SubArL:1,357622_1_509347_0_SINGLE_OPhosphoniteSub:1_SubArL:1, SymmetricSet [symIds=[357659, 357622]] SymmetricSet [symIds=[509282, 509347]] 

> <GraphJson>
{
  "graphId": 21608,
  "gVertices": [
    {
      "lstAPs": [
        {
          "id": 590498,
          "atomPositionNumber": 0,
          "atomPositionNumberInMol": 0,
          "apClass": {
            "rule": "Xlig",
            "subClass": 0,
            "bndTyp": "SINGLE"
          },
          "dirVec": {
            "x": -2.3339,
            "y": -0.0087,
            "z": 0.8172
          }
        },
        {
          "id": 590499,
          "atomPositionNumber": 0,
          "atomPositionNumberInMol": 0,
          "apClass": {
            "rule": "Xlig",
            "subClass": 0,
            "bndTyp": "SINGLE"
          },
          "dirVec": {
            "x": 2.336,
            "y": -5.0E-4,
            "z": 0.829
          }
        },
        {
          "id": 590500,
          "atomPositionNumber": 0,
          "atomPositionNumberInMol": 0,
          "apClass": {
            "rule": "scaff",
            "subClass": 0,
            "bndTyp": "SINGLE"
          },
          "dirVec": {
            "x": -0.0095,
            "y": 0.0046,
            "z": -1.7113
          }
        }
      ],
      "lstSymAPs": [
        {
          "symIds": [
            0,
            1
          ]
        }
      ],
      "mol": {
        "atoms": [
          {
            "elSymbol": "Pt",
            "p3d": {
              "x": -0.0098,
              "y": 0.0049,
              "z": 0.6289
            }
          },
          {
            "elSymbol": "C",
            "p3d": {
              "x": -6.0E-4,
              "y": 0.0016,
              "z": 2.5609
            }
          },
          {
            "elSymbol": "O",
            "p3d": {
              "x": 0.0025,
              "y": -0.0041,
              "z": 3.6974
            }
          },
          {
            "elSymbol": "Du",
            "p3d": {
              "x": -0.007,
              "y": 1.0013,
              "z": 0.6372
            }
          },
          {
            "elSymbol": "Du",
            "p3d": {
              "x": -0.0014,
              "y": 0.9902,
              "z": 2.5698
            }
          }
        ],
        "bonds": [
          {
            "atomIds": [
              1,
              2
            ],
            "bo": "TRIPLE"
          },
          {
            "atomIds": [
              0,
              1
            ],
            "bo": "SINGLE"
          },
          {
            "atomIds": [
              3,
              0
            ],
            "bo": "SINGLE"
          },
          {
            "atomIds": [
              4,
              1
            ],
            "bo": "SINGLE"
          }
        ]
      },
      "vertexId": 72,
      "buildingBlockId": 0,
      "buildingBlockType": "SCAFFOLD",
      "isRCV": false,
      "properties": {
        "ATTACHMENT_POINTS": "1#Xlig:0:SINGLE:-2.3339%-0.0087%0.8172,Xlig:0:SINGLE:2.3360%-0.0005%0.8290,scaff:0:SINGLE:-0.0095%0.0046%-1.7113 "
      },
      "uniquefyingPropertyKeys": [],
      "allowedMutationTypes": [
        "DELETE",
        "EXTEND",
        "CHANGEBRANCH",
        "CHANGELINK",
        "ADDLINK",
        "DELETELINK",
        "DELETECHAIN"
      ],
      "vertexType": "MolecularFragment"
    },
    {
      "lstAPs": [
        {
          "id": 590501,
          "atomPositionNumber": 0,
          "atomPositionNumberInMol": 5,
          "apClass": {
            "rule": "Xlig",
            "subClass": 1,
            "bndTyp": "SINGLE"
          },
          "dirVec": {
            "x": -0.0053,
            "y": -0.0027,
            "z": 0.63
          }
        }
      ],
      "lstSymAPs": [],
      "mol": {
        "atoms": [
          {
            "elSymbol": "Cl",
            "p3d": {
              "x": 2.3243,
              "y": -0.0063,
              "z": 0.8189
            }
          }
        ],
        "bonds": []
      },
      "vertexId": 82,
      "buildingBlockId": 66,
      "buildingBlockType": "FRAGMENT",
      "isRCV": false,
      "properties": {
        "ATTACHMENT_POINTS": "1#Xlig:1:SINGLE:-0.0053%-0.0027%0.6300 "
      },
      "uniquefyingPropertyKeys": [],
      "allowedMutationTypes": [
        "DELETE",
        "EXTEND",
        "CHANGEBRANCH",
        "CHANGELINK",
        "ADDLINK",
        "DELETELINK",
        "DELETECHAIN"
      ],
      "vertexType": "MolecularFragment"
    },
    {
      "lstAPs": [
        {
          "id": 590502,
          "atomPositionNumber": 0,
          "atomPositionNumberInMol": 6,
          "apClass": {
            "rule": "LPhosphoniteSubO",
            "subClass": 0,
            "bndTyp": "SINGLE"
          },
          "dirVec": {
            "x": 5.2814,
            "y": 0.8415,
            "z": 6.1068
          }
        },
        {
          "id": 590503,
          "atomPositionNumber": 0,
          "atomPositionNumberInMol": 6,
          "apClass": {
            "rule": "LPhosphoniteSubO",
            "subClass": 0,
            "bndTyp": "SINGLE"
          },
          "dirVec": {
            "x": 6.556,
            "y": 2.7336,
            "z": 7.2122
          }
        },
        {
          "id": 590504,
          "atomPositionNumber": 0,
          "atomPositionNumberInMol": 6,
          "apClass": {
            "rule": "LPhosphoniteSubR",
            "subClass": 0,
            "bndTyp": "SINGLE"
          },
          "dirVec": {
            "x": 4.1217,
            "y": 2.3132,
            "z": 8.1013
          }
        },
        {
          "id": 590505,
          "atomPositionNumber": 0,
          "atomPositionNumberInMol": 6,
          "apClass": {
            "rule": "MPhosphonite",
            "subClass": 1,
            "bndTyp": "SINGLE"
          },
          "dirVec": {
            "x": 4.3681,
            "y": 3.751,
            "z": 5.0597
          }
        }
      ],
      "lstSymAPs": [
        {
          "symIds": [
            0,
            1
          ]
        }
      ],
      "mol": {
        "atoms": [
          {
            "elSymbol": "P",
            "p3d": {
              "x": 5.1256,
              "y": 2.3373,
              "z": 6.5981
            }
          }
        ],
        "bonds": []
      },
      "vertexId": 122,
      "buildingBlockId": 61,
      "buildingBlockType": "FRAGMENT",
      "isRCV": false,
      "properties": {
        "ATTACHMENT_POINTS": "1#LPhosphoniteSubO:0:SINGLE:5.2814%0.8415%6.1068,LPhosphoniteSubO:0:SINGLE:6.5560%2.7336%7.2122,LPhosphoniteSubR:0:SINGLE:4.1217%2.3132%8.1013,MPhosphonite:1:SINGLE:4.3681%3.7510%5.0597 "
      },
      "uniquefyingPropertyKeys": [],
      "allowedMutationTypes": [
        "DELETE",
        "EXTEND",
        "CHANGEBRANCH",
        "CHANGELINK",
        "ADDLINK",
        "DELETELINK",
        "DELETECHAIN"
      ],
      "vertexType": "MolecularFragment"
    },
    {
      "lstAPs": [
        {
          "id": 590506,
          "atomPositionNumber": 0,
          "atomPositionNumberInMol": 50,
          "apClass": {
            "rule": "Xlig",
            "subClass": 1,
            "bndTyp": "SINGLE"
          },
          "dirVec": {
            "x": -0.0053,
            "y": -0.0027,
            "z": 0.63
          }
        }
      ],
      "lstSymAPs": [],
      "mol": {
        "atoms": [
          {
            "elSymbol": "Cl",
            "p3d": {
              "x": 2.3243,
              "y": -0.0063,
              "z": 0.8189
            }
          }
        ],
        "bonds": []
      },
      "vertexId": 88,
      "buildingBlockId": 66,
      "buildingBlockType": "FRAGMENT",
      "isRCV": false,
      "properties": {
        "ATTACHMENT_POINTS": "1#Xlig:1:SINGLE:-0.0053%-0.0027%0.6300 "
      },
      "uniquefyingPropertyKeys": [],
      "allowedMutationTypes": [
        "DELETE",
        "EXTEND",
        "CHANGEBRANCH",
        "CHANGELINK",
        "ADDLINK",
        "DELETELINK",
        "DELETECHAIN"
      ],
      "vertexType": "MolecularFragment"
    },
    {
      "lstAPs": [
        {
          "id": 590507,
          "atomPositionNumber": 0,
          "atomPositionNumberInMol": 7,
          "apClass": {
            "rule": "LPhosphoniteSubO",
            "subClass": 1,
            "bndTyp": "SINGLE"
          },
          "dirVec": {
            "x": 5.1317,
            "y": 2.3382,
            "z": 6.5862
          }
        },
        {
          "id": 590508,
          "atomPositionNumber": 0,
          "atomPositionNumberInMol": 7,
          "apClass": {
            "rule": "OPhosphoniteSub",
            "subClass": 1,
            "bndTyp": "SINGLE"
          },
          "dirVec": {
            "x": 7.6537,
            "y": 3.0103,
            "z": 6.3233
          }
        }
      ],
      "lstSymAPs": [],
      "mol": {
        "atoms": [
          {
            "elSymbol": "O",
            "p3d": {
              "x": 6.5544,
              "y": 2.7286,
              "z": 7.2144
            }
          }
        ],
        "bonds": []
      },
      "vertexId": 357659,
      "buildingBlockId": 62,
      "buildingBlockType": "FRAGMENT",
      "isRCV": false,
      "properties": {
        "ATTACHMENT_POINTS": "1#LPhosphoniteSubO:1:SINGLE:5.1317%2.3382%6.5862,OPhosphoniteSub:1:SINGLE:7.6537%3.0103%6.3233 "
      },
      "uniquefyingPropertyKeys": [],
      "allowedMutationTypes": [
        "DELETE",
        "EXTEND",
        "CHANGEBRANCH",
        "CHANGELINK",
        "ADDLINK",
        "DELETELINK",
        "DELETECHAIN"
      ],
      "vertexType": "MolecularFragment"
    },
    {
      "lstAPs": [
        {
          "id": 590509,
          "atomPositionNumber": 0,
          "atomPositionNumberInMol": 25,
          "apClass": {
            "rule": "LPhosphoniteSubO",
            "subClass": 1,
            "bndTyp": "SINGLE"
          },
          "dirVec": {
            "x": 5.1317,
            "y": 2.3382,
            "z": 6.5862
          }
        },
        {
          "id": 590510,
          "atomPositionNumber": 0,
          "atomPositionNumberInMol": 25,
          "apClass": {
            "rule": "OPhosphoniteSub",
            "subClass": 1,
            "bndTyp": "SINGLE"
          },
          "dirVec": {
            "x": 7.6537,
            "y": 3.0103,
            "z": 6.3233
          }
        }
      ],
      "lstSymAPs": [],
      "mol": {
        "atoms": [
          {
            "elSymbol": "O",
            "p3d": {
              "x": 6.5544,
              "y": 2.7286,
              "z": 7.2144
            }
          }
        ],
        "bonds": []
      },
      "vertexId": 357622,
      "buildingBlockId": 62,
      "buildingBlockType": "FRAGMENT",
      "isRCV": false,
      "properties": {
        "ATTACHMENT_POINTS": "1#LPhosphoniteSubO:1:SINGLE:5.1317%2.3382%6.5862,OPhosphoniteSub:1:SINGLE:7.6537%3.0103%6.3233 "
      },
      "uniquefyingPropertyKeys": [],
      "allowedMutationTypes": [
        "DELETE",
        "EXTEND",
        "CHANGEBRANCH",
        "CHANGELINK",
        "ADDLINK",
        "DELETELINK",
        "DELETECHAIN"
      ],
      "vertexType": "MolecularFragment"
    },
    {
      "lstAPs": [
        {
          "id": 590511,
          "atomPositionNumber": 1,
          "atomPositionNumberInMol": 44,
          "apClass": {
            "rule": "SubRS",
            "subClass": 1,
            "bndTyp": "SINGLE"
          },
          "dirVec": {
            "x": 0.2985,
            "y": 0.384,
            "z": -0.6258
          }
        }
      ],
      "lstSymAPs": [],
      "mol": {
        "atoms": [
          {
            "elSymbol": "C",
            "p3d": {
              "x": -1.0244,
              "y": -0.2225,
              "z": 1.3991
            }
          },
          {
            "elSymbol": "C",
            "p3d": {
              "x": 0.3973,
              "y": -0.042,
              "z": 0.8195
            }
          },
          {
            "elSymbol": "H",
            "p3d": {
              "x": -1.5635,
              "y": -0.9908,
              "z": 0.8263
            }
          },
          {
            "elSymbol": "H",
            "p3d": {
              "x": -0.941,
              "y": -0.535,
              "z": 2.446
            }
          },
          {
            "elSymbol": "H",
            "p3d": {
              "x": -1.5586,
              "y": 0.7335,
              "z": 1.3382
            }
          },
          {
            "elSymbol": "H",
            "p3d": {
              "x": 0.9335,
              "y": 0.7221,
              "z": 1.4011
            }
          },
          {
            "elSymbol": "H",
            "p3d": {
              "x": 0.927,
              "y": -1.0102,
              "z": 0.9001
            }
          }
        ],
        "bonds": [
          {
            "atomIds": [
              0,
              1
            ],
            "bo": "SINGLE"
          },
          {
            "atomIds": [
              0,
              2
            ],
            "bo": "SINGLE"
          },
          {
            "atomIds": [
              0,
              3
            ],
            "bo": "SINGLE"
          },
          {
            "atomIds": [
              0,
              4
            ],
            "bo": "SINGLE"
          },
          {
            "atomIds": [
              1,
              5
            ],
            "bo": "SINGLE"
          },
          {
            "atomIds": [
              1,
              6
            ],
            "bo": "SINGLE"
          }
        ]
      },
      "vertexId": 357626,
      "buildingBlockId": 31,
      "buildingBlockType": "FRAGMENT",
      "isRCV": false,
      "properties": {
        "ATTACHMENT_POINTS": "2#SubRS:1:SINGLE:0.2985%0.3840%-0.6258 "
      },
      "uniquefyingPropertyKeys": [],
      "allowedMutationTypes": [
        "DELETE",
        "EXTEND",
        "CHANGEBRANCH",
        "CHANGELINK",
        "ADDLINK",
        "DELETELINK",
        "DELETECHAIN"
      ],
      "vertexType": "MolecularFragment"
    },
    {
      "lstAPs": [
        {
          "id": 590560,
          "atomPositionNumber": 0,
          "atomPositionNumberInMol": 8,
          "apClass": {
            "rule": "SubArL",
            "subClass": 1,
            "bndTyp": "SINGLE"
          },
          "dirVec": {
            "x": 0.2957,
            "y": 0.3816,
            "z": -0.6358
          }
        }
      ],
      "lstSymAPs": [],
      "mol": {
        "atoms": [
          {
            "elSymbol": "C",
            "p3d": {
              "x": 1.7088,
              "y": 0.551,
              "z": -1.2192
            }
          },
          {
            "elSymbol": "C",
            "p3d": {
              "x": 4.2535,
              "y": 0.8673,
              "z": -2.2548
            }
          },
          {
            "elSymbol": "C",
            "p3d": {
              "x": 2.3329,
              "y": 1.7979,
              "z": -1.1377
            }
          },
          {
            "elSymbol": "C",
            "p3d": {
              "x": 2.3315,
              "y": -0.5114,
              "z": -1.8171
            }
          },
          {
            "elSymbol": "C",
            "p3d": {
              "x": 3.6062,
              "y": -0.3595,
              "z": -2.3299
            }
          },
          {
            "elSymbol": "C",
            "p3d": {
              "x": 3.6205,
              "y": 1.9526,
              "z": -1.657
            }
          },
          {
            "elSymbol": "H",
            "p3d": {
              "x": 4.116,
              "y": -1.2062,
              "z": -2.8187
            }
          },
          {
            "elSymbol": "H",
            "p3d": {
              "x": 4.1193,
              "y": 2.9144,
              "z": -1.5883
            }
          },
          {
            "elSymbol": "H",
            "p3d": {
              "x": 5.2485,
              "y": 0.9961,
              "z": -2.6688
            }
          },
          {
            "elSymbol": "C",
            "p3d": {
              "x": 1.6389,
              "y": 2.9732,
              "z": -0.4581
            }
          },
          {
            "elSymbol": "H",
            "p3d": {
              "x": 2.3787,
              "y": 3.6649,
              "z": -0.0604
            }
          },
          {
            "elSymbol": "H",
            "p3d": {
              "x": 1.0049,
              "y": 2.601,
              "z": 0.3676
            }
          },
          {
            "elSymbol": "H",
            "p3d": {
              "x": 1.0013,
              "y": 3.4961,
              "z": -1.199
            }
          },
          {
            "elSymbol": "C",
            "p3d": {
              "x": 1.6397,
              "y": -1.8757,
              "z": -1.9164
            }
          },
          {
            "elSymbol": "H",
            "p3d": {
              "x": 2.3747,
              "y": -2.6603,
              "z": -1.9613
            }
          },
          {
            "elSymbol": "H",
            "p3d": {
              "x": 1.0044,
              "y": -1.9015,
              "z": -2.8054
            }
          },
          {
            "elSymbol": "H",
            "p3d": {
              "x": 1.0057,
              "y": -2.0243,
              "z": -1.0149
            }
          }
        ],
        "bonds": [
          {
            "atomIds": [
              0,
              3
            ],
            "bo": "SINGLE"
          },
          {
            "atomIds": [
              3,
              4
            ],
            "bo": "DOUBLE"
          },
          {
            "atomIds": [
              1,
              4
            ],
            "bo": "SINGLE"
          },
          {
            "atomIds": [
              1,
              5
            ],
            "bo": "DOUBLE"
          },
          {
            "atomIds": [
              2,
              5
            ],
            "bo": "SINGLE"
          },
          {
            "atomIds": [
              0,
              2
            ],
            "bo": "DOUBLE"
          },
          {
            "atomIds": [
              4,
              6
            ],
            "bo": "SINGLE"
          },
          {
            "atomIds": [
              5,
              7
            ],
            "bo": "SINGLE"
          },
          {
            "atomIds": [
              1,
              8
            ],
            "bo": "SINGLE"
          },
          {
            "atomIds": [
              9,
              10
            ],
            "bo": "SINGLE"
          },
          {
            "atomIds": [
              9,
              11
            ],
            "bo": "SINGLE"
          },
          {
            "atomIds": [
              9,
              12
            ],
            "bo": "SINGLE"
          },
          {
            "atomIds": [
              2,
              9
            ],
            "bo": "SINGLE"
          },
          {
            "atomIds": [
              13,
              14
            ],
            "bo": "SINGLE"
          },
          {
            "atomIds": [
              13,
              15
            ],
            "bo": "SINGLE"
          },
          {
            "atomIds": [
              13,
              16
            ],
            "bo": "SINGLE"
          },
          {
            "atomIds": [
              3,
              13
            ],
            "bo": "SINGLE"
          }
        ]
      },
      "vertexId": 509282,
      "buildingBlockId": 37,
      "buildingBlockType": "FRAGMENT",
      "isRCV": false,
      "properties": {
        "ATTACHMENT_POINTS": "1#SubArL:1:SINGLE:0.2957%0.3816%-0.6358 "
      },
      "uniquefyingPropertyKeys": [],
      "allowedMutationTypes": [
        "DELETE",
        "EXTEND",
        "CHANGEBRANCH",
        "CHANGELINK",
        "ADDLINK",
        "DELETELINK",
        "DELETECHAIN"
      ],
      "vertexType": "MolecularFragment"
    },
    {
      "lstAPs": [
        {
          "id": 590561,
          "atomPositionNumber": 0,
          "atomPositionNumberInMol": 26,
          "apClass": {
            "rule": "SubArL",
            "subClass": 1,
            "bndTyp": "SINGLE"
          },
          "dirVec": {
            "x": 0.2957,
            "y": 0.3816,
            "z": -0.6358
          }
        }
      ],
      "lstSymAPs": [],
      "mol": {
        "atoms": [
          {
            "elSymbol": "C",
            "p3d": {
              "x": 1.7088,
              "y": 0.551,
              "z": -1.2192
            }
          },
          {
            "elSymbol": "C",
            "p3d": {
              "x": 4.2535,
              "y": 0.8673,
              "z": -2.2548
            }
          },
          {
            "elSymbol": "C",
            "p3d": {
              "x": 2.3329,
              "y": 1.7979,
              "z": -1.1377
            }
          },
          {
            "elSymbol": "C",
            "p3d": {
              "x": 2.3315,
              "y": -0.5114,
              "z": -1.8171
            }
          },
          {
            "elSymbol": "C",
            "p3d": {
              "x": 3.6062,
              "y": -0.3595,
              "z": -2.3299
            }
          },
          {
            "elSymbol": "C",
            "p3d": {
              "x": 3.6205,
              "y": 1.9526,
              "z": -1.657
            }
          },
          {
            "elSymbol": "H",
            "p3d": {
              "x": 4.116,
              "y": -1.2062,
              "z": -2.8187
            }
          },
          {
            "elSymbol": "H",
            "p3d": {
              "x": 4.1193,
              "y": 2.9144,
              "z": -1.5883
            }
          },
          {
            "elSymbol": "H",
            "p3d": {
              "x": 5.2485,
              "y": 0.9961,
              "z": -2.6688
            }
          },
          {
            "elSymbol": "C",
            "p3d": {
              "x": 1.6389,
              "y": 2.9732,
              "z": -0.4581
            }
          },
          {
            "elSymbol": "H",
            "p3d": {
              "x": 2.3787,
              "y": 3.6649,
              "z": -0.0604
            }
          },
          {
            "elSymbol": "H",
            "p3d": {
              "x": 1.0049,
              "y": 2.601,
              "z": 0.3676
            }
          },
          {
            "elSymbol": "H",
            "p3d": {
              "x": 1.0013,
              "y": 3.4961,
              "z": -1.199
            }
          },
          {
            "elSymbol": "C",
            "p3d": {
              "x": 1.6397,
              "y": -1.8757,
              "z": -1.9164
            }
          },
          {
            "elSymbol": "H",
            "p3d": {
              "x": 2.3747,
              "y": -2.6603,
              "z": -1.9613
            }
          },
          {
            "elSymbol": "H",
            "p3d": {
              "x": 1.0044,
              "y": -1.9015,
              "z": -2.8054
            }
          },
          {
            "elSymbol": "H",
            "p3d": {
              "x": 1.0057,
              "y": -2.0243,
              "z": -1.0149
            }
          }
        ],
        "bonds": [
          {
            "atomIds": [
              0,
              3
            ],
            "bo": "SINGLE"
          },
          {
            "atomIds": [
              3,
              4
            ],
            "bo": "DOUBLE"
          },
          {
            "atomIds": [
              1,
              4
            ],
            "bo": "SINGLE"
          },
          {
            "atomIds": [
              1,
              5
            ],
            "bo": "DOUBLE"
          },
          {
            "atomIds": [
              2,
              5
            ],
            "bo": "SINGLE"
          },
          {
            "atomIds": [
              0,
              2
            ],
            "bo": "DOUBLE"
          },
          {
            "atomIds": [
              4,
              6
            ],
            "bo": "SINGLE"
          },
          {
            "atomIds": [
              5,
              7
            ],
            "bo": "SINGLE"
          },
          {
            "atomIds": [
              1,
              8
            ],
            "bo": "SINGLE"
          },
          {
            "atomIds": [
              9,
              10
            ],
            "bo": "SINGLE"
          },
          {
            "atomIds": [
              9,
              11
            ],
            "bo": "SINGLE"
          },
          {
            "atomIds": [
              9,
              12
            ],
            "bo": "SINGLE"
          },
          {
            "atomIds": [
              2,
              9
            ],
            "bo": "SINGLE"
          },
          {
            "atomIds": [
              13,
              14
            ],
            "bo": "SINGLE"
          },
          {
            "atomIds": [
              13,
              15
            ],
            "bo": "SINGLE"
          },
          {
            "atomIds": [
              13,
              16
            ],
            "bo": "SINGLE"
          },
          {
            "atomIds": [
              3,
              13
            ],
            "bo": "SINGLE"
          }
        ]
      },
      "vertexId": 509347,
      "buildingBlockId": 37,
      "buildingBlockType": "FRAGMENT",
      "isRCV": false,
      "properties": {
        "ATTACHMENT_POINTS": "1#SubArL:1:SINGLE:0.2957%0.3816%-0.6358 "
      },
      "uniquefyingPropertyKeys": [],
      "allowedMutationTypes": [
        "DELETE",
        "EXTEND",
        "CHANGEBRANCH",
        "CHANGELINK",
        "ADDLINK",
        "DELETELINK",
        "DELETECHAIN"
      ],
      "vertexType": "MolecularFragment"
    }
  ],
  "gEdges": [
    {
      "srcAPID": 590498,
      "trgAPID": 590501,
      "bondType": "SINGLE"
    },
    {
      "srcAPID": 590500,
      "trgAPID": 590505,
      "bondType": "SINGLE"
    },
    {
      "srcAPID": 590499,
      "trgAPID": 590506,
      "bondType": "SINGLE"
    },
    {
      "srcAPID": 590503,
      "trgAPID": 590507,
      "bondType": "SINGLE"
    },
    {
      "srcAPID": 590502,
      "trgAPID": 590509,
      "bondType": "SINGLE"
    },
    {
      "srcAPID": 590504,
      "trgAPID": 590511,
      "bondType": "SINGLE"
    },
    {
      "srcAPID": 590508,
      "trgAPID": 590560,
      "bondType": "SINGLE"
    },
    {
      "srcAPID": 590510,
      "trgAPID": 590561,
      "bondType": "SINGLE"
    }
  ],
  "gRings": [],
  "symVertices": [
    {
      "symIds": [
        357659,
        357622
      ]
    },
    {
      "symIds": [
        509282,
        509347
      ]
    }
  ]
}

> <SMILES>
[Pt](C#O)(Cl)([P](OC=1C(=C(C(=C(C1C([H])([H])[H])[H])[H])[H])C([H])([H])[H])(OC=2C(=C(C(=C(C2C([H])([H])[H])[H])[H])[H])C([H])([H])[H])C(C([H])([H])[H])([H])[H])Cl

$$$$
