M00015493
  CDK     04222214113D

 31 31  0  0  0  0  0  0  0  0999 V2000
   -2.7871    0.0795   -0.5197 Pt  0  0  0  0  0  0  0  0  0  0  0  0
   -4.7277    0.1595   -0.7663 C   0  0  0  0  0  0  0  0  0  0  0  0
   -5.8587    0.2077   -0.9043 O   0  0  0  0  0  0  0  0  0  0  0  0
   -2.9039    2.4192   -0.4764 Cl  0  0  0  0  0  0  0  0  0  0  0  0
   -0.5007    0.0005   -0.2607 P   0  0  0  0  0  0  0  0  0  0  0  0
    0.0809   -1.4844    0.7269 C   0  0  0  0  0  0  0  0  0  0  0  0
   -0.3400   -1.4410    1.7553 H   0  0  0  0  0  0  0  0  0  0  0  0
   -0.3670   -2.4048    0.2808 H   0  0  0  0  0  0  0  0  0  0  0  0
    1.5792    1.4864    0.9910 C   0  0  0  0  0  0  0  0  0  0  0  0
    2.2736    1.1693    0.1876 H   0  0  0  0  0  0  0  0  0  0  0  0
    1.9220    2.5110    1.2599 H   0  0  0  0  0  0  0  0  0  0  0  0
    1.7342    0.5813    2.2227 C   0  0  0  0  0  0  0  0  0  0  0  0
    2.4296    1.0678    2.9387 H   0  0  0  0  0  0  0  0  0  0  0  0
    0.7753    0.5131    2.7740 H   0  0  0  0  0  0  0  0  0  0  0  0
    1.6019   -1.5812    0.7643 C   0  0  0  0  0  0  0  0  0  0  0  0
    2.0667   -1.2682   -0.1923 H   0  0  0  0  0  0  0  0  0  0  0  0
    1.8777   -2.6568    0.8575 H   0  0  0  0  0  0  0  0  0  0  0  0
    2.2647   -0.8266    1.9273 C   0  0  0  0  0  0  0  0  0  0  0  0
    2.1658   -1.4327    2.8522 H   0  0  0  0  0  0  0  0  0  0  0  0
    3.3546   -0.7708    1.7276 H   0  0  0  0  0  0  0  0  0  0  0  0
    0.1426    1.5953    0.4927 C   0  0  0  0  0  0  0  0  0  0  0  0
    0.0403    2.4133   -0.2578 H   0  0  0  0  0  0  0  0  0  0  0  0
   -0.5393    1.9095    1.3176 H   0  0  0  0  0  0  0  0  0  0  0  0
   -1.0042    0.1239   -2.9593 C   0  0  0  0  0  0  0  0  0  0  0  0
    0.1643   -0.1382   -2.0204 C   0  0  0  0  0  0  0  0  0  0  0  0
   -1.4823    1.1087   -2.8063 H   0  0  0  0  0  0  0  0  0  0  0  0
   -0.6670    0.1093   -4.0069 H   0  0  0  0  0  0  0  0  0  0  0  0
   -1.7979   -0.6453   -2.8843 H   0  0  0  0  0  0  0  0  0  0  0  0
    0.5910   -1.1463   -2.1992 H   0  0  0  0  0  0  0  0  0  0  0  0
    0.9874    0.5821   -2.1929 H   0  0  0  0  0  0  0  0  0  0  0  0
   -3.0759   -2.2409   -0.6294 Cl  0  0  0  0  0  0  0  0  0  0  0  0
  2  3  3  0  0  0  0
  1  2  1  0  0  0  0
  1  4  1  0  0  0  0
  6  5  1  0  0  0  0
  7  6  1  0  0  0  0
  8  6  1  0  0  0  0
  9 10  1  0  0  0  0
  9 21  1  0  0  0  0
 11  9  1  0  0  0  0
 12  9  1  0  0  0  0
 13 12  1  0  0  0  0
 14 12  1  0  0  0  0
 15  6  1  0  0  0  0
 15 18  1  0  0  0  0
 16 15  1  0  0  0  0
 17 15  1  0  0  0  0
 18 12  1  0  0  0  0
 19 18  1  0  0  0  0
 20 18  1  0  0  0  0
 21  5  1  0  0  0  0
 22 21  1  0  0  0  0
 23 21  1  0  0  0  0
  1  5  1  0  0  0  0
 24 25  1  0  0  0  0
 24 26  1  0  0  0  0
 24 27  1  0  0  0  0
 24 28  1  0  0  0  0
 25 29  1  0  0  0  0
 25 30  1  0  0  0  0
  5 25  1  0  0  0  0
  1 31  1  0  0  0  0
M  END
> <PM6_ENERGY>
-435.233

> <UID>
TYSKXXUNXLTPNI-XVJJZMSQNA-L

> <FITNESS>
1.14041

> <GCODE>
16758

> <GraphENC>
16758 72_1_0,82_67_1,103_41_1,88_67_1,344698_32_1, 72_0_82_0_SINGLE_Xlig:0_Xlig:1,72_2_103_1_SINGLE_scaff:0_MPhosphine:1,72_1_88_0_SINGLE_Xlig:0_Xlig:1,103_0_344698_0_SINGLE_LPhosphineSubM:0_SubRS:1, 

> <GraphJson>
{
  "graphId": 16758,
  "gVertices": [
    {
      "lstAPs": [
        {
          "id": 449053,
          "atomPositionNumber": 0,
          "atomPositionNumberInMol": 0,
          "apClass": {
            "rule": "Xlig",
            "subClass": 0,
            "bndTyp": "SINGLE"
          },
          "dirVec": {
            "x": -2.3339,
            "y": -0.0087,
            "z": 0.8172
          }
        },
        {
          "id": 449054,
          "atomPositionNumber": 0,
          "atomPositionNumberInMol": 0,
          "apClass": {
            "rule": "Xlig",
            "subClass": 0,
            "bndTyp": "SINGLE"
          },
          "dirVec": {
            "x": 2.336,
            "y": -5.0E-4,
            "z": 0.829
          }
        },
        {
          "id": 449055,
          "atomPositionNumber": 0,
          "atomPositionNumberInMol": 0,
          "apClass": {
            "rule": "scaff",
            "subClass": 0,
            "bndTyp": "SINGLE"
          },
          "dirVec": {
            "x": -0.0095,
            "y": 0.0046,
            "z": -1.7113
          }
        }
      ],
      "lstSymAPs": [
        {
          "symIds": [
            0,
            1
          ]
        }
      ],
      "mol": {
        "atoms": [
          {
            "elSymbol": "Pt",
            "p3d": {
              "x": -0.0098,
              "y": 0.0049,
              "z": 0.6289
            }
          },
          {
            "elSymbol": "C",
            "p3d": {
              "x": -6.0E-4,
              "y": 0.0016,
              "z": 2.5609
            }
          },
          {
            "elSymbol": "O",
            "p3d": {
              "x": 0.0025,
              "y": -0.0041,
              "z": 3.6974
            }
          },
          {
            "elSymbol": "Du",
            "p3d": {
              "x": -0.007,
              "y": 1.0013,
              "z": 0.6372
            }
          },
          {
            "elSymbol": "Du",
            "p3d": {
              "x": -0.0014,
              "y": 0.9902,
              "z": 2.5698
            }
          }
        ],
        "bonds": [
          {
            "atomIds": [
              1,
              2
            ],
            "bo": "TRIPLE"
          },
          {
            "atomIds": [
              0,
              1
            ],
            "bo": "SINGLE"
          },
          {
            "atomIds": [
              3,
              0
            ],
            "bo": "SINGLE"
          },
          {
            "atomIds": [
              4,
              1
            ],
            "bo": "SINGLE"
          }
        ]
      },
      "vertexId": 72,
      "buildingBlockId": 0,
      "buildingBlockType": "SCAFFOLD",
      "isRCV": false,
      "properties": {
        "ATTACHMENT_POINTS": "1#Xlig:0:SINGLE:-2.3339%-0.0087%0.8172,Xlig:0:SINGLE:2.3360%-0.0005%0.8290,scaff:0:SINGLE:-0.0095%0.0046%-1.7113 "
      },
      "uniquefyingPropertyKeys": [],
      "allowedMutationTypes": [
        "DELETE",
        "EXTEND",
        "CHANGEBRANCH",
        "CHANGELINK",
        "ADDLINK",
        "DELETELINK",
        "DELETECHAIN"
      ],
      "vertexType": "MolecularFragment"
    },
    {
      "lstAPs": [
        {
          "id": 449056,
          "atomPositionNumber": 0,
          "atomPositionNumberInMol": 5,
          "apClass": {
            "rule": "Xlig",
            "subClass": 1,
            "bndTyp": "SINGLE"
          },
          "dirVec": {
            "x": -0.0053,
            "y": -0.0027,
            "z": 0.63
          }
        }
      ],
      "lstSymAPs": [],
      "mol": {
        "atoms": [
          {
            "elSymbol": "Cl",
            "p3d": {
              "x": 2.3243,
              "y": -0.0063,
              "z": 0.8189
            }
          }
        ],
        "bonds": []
      },
      "vertexId": 82,
      "buildingBlockId": 66,
      "buildingBlockType": "FRAGMENT",
      "isRCV": false,
      "properties": {
        "ATTACHMENT_POINTS": "1#Xlig:1:SINGLE:-0.0053%-0.0027%0.6300 "
      },
      "uniquefyingPropertyKeys": [],
      "allowedMutationTypes": [
        "DELETE",
        "EXTEND",
        "CHANGEBRANCH",
        "CHANGELINK",
        "ADDLINK",
        "DELETELINK",
        "DELETECHAIN"
      ],
      "vertexType": "MolecularFragment"
    },
    {
      "lstAPs": [
        {
          "id": 449057,
          "atomPositionNumber": 0,
          "atomPositionNumberInMol": 6,
          "apClass": {
            "rule": "LPhosphineSubM",
            "subClass": 0,
            "bndTyp": "SINGLE"
          },
          "dirVec": {
            "x": 10.5741,
            "y": 2.388,
            "z": 3.5052
          }
        },
        {
          "id": 449058,
          "atomPositionNumber": 0,
          "atomPositionNumberInMol": 6,
          "apClass": {
            "rule": "MPhosphine",
            "subClass": 1,
            "bndTyp": "SINGLE"
          },
          "dirVec": {
            "x": 9.1744,
            "y": 5.4814,
            "z": 2.7926
          }
        }
      ],
      "lstSymAPs": [],
      "mol": {
        "atoms": [
          {
            "elSymbol": "P",
            "p3d": {
              "x": 10.8769,
              "y": 4.0494,
              "z": 2.7954
            }
          },
          {
            "elSymbol": "C",
            "p3d": {
              "x": 12.1798,
              "y": 4.6169,
              "z": 3.946
            }
          },
          {
            "elSymbol": "H",
            "p3d": {
              "x": 12.4917,
              "y": 5.6265,
              "z": 3.6448
            }
          },
          {
            "elSymbol": "H",
            "p3d": {
              "x": 11.7572,
              "y": 4.6829,
              "z": 4.9359
            }
          },
          {
            "elSymbol": "C",
            "p3d": {
              "x": 13.105,
              "y": 3.3948,
              "z": 1.0043
            }
          },
          {
            "elSymbol": "H",
            "p3d": {
              "x": 13.2476,
              "y": 2.4369,
              "z": 1.512
            }
          },
          {
            "elSymbol": "H",
            "p3d": {
              "x": 13.3426,
              "y": 3.2455,
              "z": -0.0523
            }
          },
          {
            "elSymbol": "C",
            "p3d": {
              "x": 14.0865,
              "y": 4.4359,
              "z": 1.5921
            }
          },
          {
            "elSymbol": "H",
            "p3d": {
              "x": 14.9506,
              "y": 4.4888,
              "z": 0.9474
            }
          },
          {
            "elSymbol": "H",
            "p3d": {
              "x": 13.5947,
              "y": 5.412,
              "z": 1.5613
            }
          },
          {
            "elSymbol": "C",
            "p3d": {
              "x": 13.4292,
              "y": 3.7407,
              "z": 4.0211
            }
          },
          {
            "elSymbol": "H",
            "p3d": {
              "x": 13.1512,
              "y": 2.7042,
              "z": 3.8217
            }
          },
          {
            "elSymbol": "H",
            "p3d": {
              "x": 13.8508,
              "y": 3.7903,
              "z": 5.0209
            }
          },
          {
            "elSymbol": "C",
            "p3d": {
              "x": 14.5313,
              "y": 4.1509,
              "z": 3.0247
            }
          },
          {
            "elSymbol": "H",
            "p3d": {
              "x": 15.0393,
              "y": 5.0334,
              "z": 3.3968
            }
          },
          {
            "elSymbol": "H",
            "p3d": {
              "x": 15.284,
              "y": 3.3564,
              "z": 2.9969
            }
          },
          {
            "elSymbol": "C",
            "p3d": {
              "x": 11.628,
              "y": 3.8158,
              "z": 1.119
            }
          },
          {
            "elSymbol": "H",
            "p3d": {
              "x": 11.0357,
              "y": 3.0492,
              "z": 0.6032
            }
          },
          {
            "elSymbol": "H",
            "p3d": {
              "x": 11.5015,
              "y": 4.7365,
              "z": 0.5787
            }
          }
        ],
        "bonds": [
          {
            "atomIds": [
              1,
              0
            ],
            "bo": "SINGLE"
          },
          {
            "atomIds": [
              2,
              1
            ],
            "bo": "SINGLE"
          },
          {
            "atomIds": [
              3,
              1
            ],
            "bo": "SINGLE"
          },
          {
            "atomIds": [
              4,
              5
            ],
            "bo": "SINGLE"
          },
          {
            "atomIds": [
              4,
              16
            ],
            "bo": "SINGLE"
          },
          {
            "atomIds": [
              6,
              4
            ],
            "bo": "SINGLE"
          },
          {
            "atomIds": [
              7,
              4
            ],
            "bo": "SINGLE"
          },
          {
            "atomIds": [
              8,
              7
            ],
            "bo": "SINGLE"
          },
          {
            "atomIds": [
              9,
              7
            ],
            "bo": "SINGLE"
          },
          {
            "atomIds": [
              10,
              1
            ],
            "bo": "SINGLE"
          },
          {
            "atomIds": [
              10,
              13
            ],
            "bo": "SINGLE"
          },
          {
            "atomIds": [
              11,
              10
            ],
            "bo": "SINGLE"
          },
          {
            "atomIds": [
              12,
              10
            ],
            "bo": "SINGLE"
          },
          {
            "atomIds": [
              13,
              7
            ],
            "bo": "SINGLE"
          },
          {
            "atomIds": [
              14,
              13
            ],
            "bo": "SINGLE"
          },
          {
            "atomIds": [
              15,
              13
            ],
            "bo": "SINGLE"
          },
          {
            "atomIds": [
              16,
              0
            ],
            "bo": "SINGLE"
          },
          {
            "atomIds": [
              17,
              16
            ],
            "bo": "SINGLE"
          },
          {
            "atomIds": [
              18,
              16
            ],
            "bo": "SINGLE"
          }
        ]
      },
      "vertexId": 103,
      "buildingBlockId": 40,
      "buildingBlockType": "FRAGMENT",
      "isRCV": false,
      "properties": {
        "ATTACHMENT_POINTS": "1#LPhosphineSubM:0:SINGLE:10.5741%2.3880%3.5052,MPhosphine:1:SINGLE:9.1744%5.4814%2.7926 "
      },
      "uniquefyingPropertyKeys": [],
      "allowedMutationTypes": [
        "DELETE",
        "EXTEND",
        "CHANGEBRANCH",
        "CHANGELINK",
        "ADDLINK",
        "DELETELINK",
        "DELETECHAIN"
      ],
      "vertexType": "MolecularFragment"
    },
    {
      "lstAPs": [
        {
          "id": 449059,
          "atomPositionNumber": 0,
          "atomPositionNumberInMol": 32,
          "apClass": {
            "rule": "Xlig",
            "subClass": 1,
            "bndTyp": "SINGLE"
          },
          "dirVec": {
            "x": -0.0053,
            "y": -0.0027,
            "z": 0.63
          }
        }
      ],
      "lstSymAPs": [],
      "mol": {
        "atoms": [
          {
            "elSymbol": "Cl",
            "p3d": {
              "x": 2.3243,
              "y": -0.0063,
              "z": 0.8189
            }
          }
        ],
        "bonds": []
      },
      "vertexId": 88,
      "buildingBlockId": 66,
      "buildingBlockType": "FRAGMENT",
      "isRCV": false,
      "properties": {
        "ATTACHMENT_POINTS": "1#Xlig:1:SINGLE:-0.0053%-0.0027%0.6300 "
      },
      "uniquefyingPropertyKeys": [],
      "allowedMutationTypes": [
        "DELETE",
        "EXTEND",
        "CHANGEBRANCH",
        "CHANGELINK",
        "ADDLINK",
        "DELETELINK",
        "DELETECHAIN"
      ],
      "vertexType": "MolecularFragment"
    },
    {
      "lstAPs": [
        {
          "id": 449084,
          "atomPositionNumber": 1,
          "atomPositionNumberInMol": 26,
          "apClass": {
            "rule": "SubRS",
            "subClass": 1,
            "bndTyp": "SINGLE"
          },
          "dirVec": {
            "x": 0.2985,
            "y": 0.384,
            "z": -0.6258
          }
        }
      ],
      "lstSymAPs": [],
      "mol": {
        "atoms": [
          {
            "elSymbol": "C",
            "p3d": {
              "x": -1.0244,
              "y": -0.2225,
              "z": 1.3991
            }
          },
          {
            "elSymbol": "C",
            "p3d": {
              "x": 0.3973,
              "y": -0.042,
              "z": 0.8195
            }
          },
          {
            "elSymbol": "H",
            "p3d": {
              "x": -1.5635,
              "y": -0.9908,
              "z": 0.8263
            }
          },
          {
            "elSymbol": "H",
            "p3d": {
              "x": -0.941,
              "y": -0.535,
              "z": 2.446
            }
          },
          {
            "elSymbol": "H",
            "p3d": {
              "x": -1.5586,
              "y": 0.7335,
              "z": 1.3382
            }
          },
          {
            "elSymbol": "H",
            "p3d": {
              "x": 0.9335,
              "y": 0.7221,
              "z": 1.4011
            }
          },
          {
            "elSymbol": "H",
            "p3d": {
              "x": 0.927,
              "y": -1.0102,
              "z": 0.9001
            }
          }
        ],
        "bonds": [
          {
            "atomIds": [
              0,
              1
            ],
            "bo": "SINGLE"
          },
          {
            "atomIds": [
              0,
              2
            ],
            "bo": "SINGLE"
          },
          {
            "atomIds": [
              0,
              3
            ],
            "bo": "SINGLE"
          },
          {
            "atomIds": [
              0,
              4
            ],
            "bo": "SINGLE"
          },
          {
            "atomIds": [
              1,
              5
            ],
            "bo": "SINGLE"
          },
          {
            "atomIds": [
              1,
              6
            ],
            "bo": "SINGLE"
          }
        ]
      },
      "vertexId": 344698,
      "buildingBlockId": 31,
      "buildingBlockType": "FRAGMENT",
      "isRCV": false,
      "properties": {
        "ATTACHMENT_POINTS": "2#SubRS:1:SINGLE:0.2985%0.3840%-0.6258 "
      },
      "uniquefyingPropertyKeys": [],
      "allowedMutationTypes": [
        "DELETE",
        "EXTEND",
        "CHANGEBRANCH",
        "CHANGELINK",
        "ADDLINK",
        "DELETELINK",
        "DELETECHAIN"
      ],
      "vertexType": "MolecularFragment"
    }
  ],
  "gEdges": [
    {
      "srcAPID": 449053,
      "trgAPID": 449056,
      "bondType": "SINGLE"
    },
    {
      "srcAPID": 449055,
      "trgAPID": 449058,
      "bondType": "SINGLE"
    },
    {
      "srcAPID": 449054,
      "trgAPID": 449059,
      "bondType": "SINGLE"
    },
    {
      "srcAPID": 449057,
      "trgAPID": 449084,
      "bondType": "SINGLE"
    }
  ],
  "gRings": [],
  "symVertices": []
}

> <SMILES>
[Pt](C#O)(Cl)([P]1(C([H])([H])C(C(C(C([H])(C1([H])[H])[H])([H])[H])([H])[H])([H])[H])C(C([H])([H])[H])([H])[H])Cl

$$$$
