M00009459
  CDK     04222212043D

 43 45  0  0  0  0  0  0  0  0999 V2000
   -2.2448    0.1876    0.0937 Pt  0  0  0  0  0  0  0  0  0  0  0  0
   -4.1532    0.5447    0.1561 C   0  0  0  0  0  0  0  0  0  0  0  0
   -5.2735    0.7611    0.1935 O   0  0  0  0  0  0  0  0  0  0  0  0
   -1.8591    2.1434    0.2016 C   0  0  0  0  0  0  0  0  0  0  0  0
   -1.6301    3.2730    0.2722 N   0  0  0  0  0  0  0  0  0  0  0  0
    0.0034   -0.1803    0.0558 P   0  0  0  0  0  0  0  0  0  0  0  0
    0.9806    1.0334   -0.9782 C   0  0  0  0  0  0  0  0  0  0  0  0
    1.7445    1.7404   -0.1251 C   0  0  0  0  0  0  0  0  0  0  0  0
    1.6357    1.4050    1.3128 C   0  0  0  0  0  0  0  0  0  0  0  0
    0.7854    0.4165    1.6469 C   0  0  0  0  0  0  0  0  0  0  0  0
    2.4061    2.5522   -0.4241 H   0  0  0  0  0  0  0  0  0  0  0  0
    2.2186    1.9816    2.0291 H   0  0  0  0  0  0  0  0  0  0  0  0
    0.3065   -2.2811   -1.7537 C   0  0  0  0  0  0  0  0  0  0  0  0
    0.5982   -1.9238   -0.3081 C   0  0  0  0  0  0  0  0  0  0  0  0
   -0.7702   -2.2821   -1.9923 H   0  0  0  0  0  0  0  0  0  0  0  0
    0.8142   -1.6327   -2.4824 H   0  0  0  0  0  0  0  0  0  0  0  0
    0.6486   -3.3074   -1.9650 H   0  0  0  0  0  0  0  0  0  0  0  0
    0.0857   -2.6402    0.3782 H   0  0  0  0  0  0  0  0  0  0  0  0
    1.6829   -2.0119   -0.0878 H   0  0  0  0  0  0  0  0  0  0  0  0
    0.4129   -0.1393    2.9368 C   0  0  0  0  0  0  0  0  0  0  0  0
   -0.2834   -1.2126    5.4310 C   0  0  0  0  0  0  0  0  0  0  0  0
    1.4120   -0.4609    3.8722 C   0  0  0  0  0  0  0  0  0  0  0  0
   -0.9410   -0.3545    3.2592 C   0  0  0  0  0  0  0  0  0  0  0  0
   -1.2803   -0.8881    4.5045 C   0  0  0  0  0  0  0  0  0  0  0  0
    1.0609   -0.9975    5.1131 C   0  0  0  0  0  0  0  0  0  0  0  0
    2.4595   -0.2941    3.6281 H   0  0  0  0  0  0  0  0  0  0  0  0
   -1.7390   -0.0916    2.5535 H   0  0  0  0  0  0  0  0  0  0  0  0
   -2.3287   -1.0534    4.7547 H   0  0  0  0  0  0  0  0  0  0  0  0
    1.8377   -1.2477    5.8351 H   0  0  0  0  0  0  0  0  0  0  0  0
   -0.5555   -1.6315    6.3990 H   0  0  0  0  0  0  0  0  0  0  0  0
    0.8301    1.1129   -2.4220 C   0  0  0  0  0  0  0  0  0  0  0  0
    0.5654    1.2655   -5.2078 C   0  0  0  0  0  0  0  0  0  0  0  0
    1.9723    1.1073   -3.2417 C   0  0  0  0  0  0  0  0  0  0  0  0
   -0.4481    1.1976   -3.0051 C   0  0  0  0  0  0  0  0  0  0  0  0
   -0.5724    1.2769   -4.3939 C   0  0  0  0  0  0  0  0  0  0  0  0
    1.8357    1.1810   -4.6298 C   0  0  0  0  0  0  0  0  0  0  0  0
    2.9626    1.0456   -2.7941 H   0  0  0  0  0  0  0  0  0  0  0  0
   -1.3467    1.2268   -2.3811 H   0  0  0  0  0  0  0  0  0  0  0  0
   -1.5622    1.3515   -4.8447 H   0  0  0  0  0  0  0  0  0  0  0  0
    2.7225    1.1760   -5.2629 H   0  0  0  0  0  0  0  0  0  0  0  0
    0.4612    1.3263   -6.2902 H   0  0  0  0  0  0  0  0  0  0  0  0
   -2.6211   -1.7705    0.0041 C   0  0  0  0  0  0  0  0  0  0  0  0
   -2.8338   -2.9050   -0.0413 N   0  0  0  0  0  0  0  0  0  0  0  0
  2  3  3  0  0  0  0
  1  2  1  0  0  0  0
  4  5  3  0  0  0  0
  1  4  1  0  0  0  0
  7  6  1  0  0  0  0
  8  7  2  0  0  0  0
  9  8  1  0  0  0  0
  9 10  2  0  0  0  0
 10  6  1  0  0  0  0
  8 11  1  0  0  0  0
  9 12  1  0  0  0  0
  1  6  1  0  0  0  0
 13 14  1  0  0  0  0
 13 15  1  0  0  0  0
 13 16  1  0  0  0  0
 13 17  1  0  0  0  0
 14 18  1  0  0  0  0
 14 19  1  0  0  0  0
  6 14  1  0  0  0  0
 20 23  1  0  0  0  0
 23 24  2  0  0  0  0
 21 24  1  0  0  0  0
 21 25  2  0  0  0  0
 22 25  1  0  0  0  0
 20 22  2  0  0  0  0
 24 28  1  0  0  0  0
 25 29  1  0  0  0  0
 21 30  1  0  0  0  0
 22 26  1  0  0  0  0
 23 27  1  0  0  0  0
 10 20  1  0  0  0  0
 31 34  1  0  0  0  0
 34 35  2  0  0  0  0
 32 35  1  0  0  0  0
 32 36  2  0  0  0  0
 33 36  1  0  0  0  0
 31 33  2  0  0  0  0
 35 39  1  0  0  0  0
 36 40  1  0  0  0  0
 32 41  1  0  0  0  0
 33 37  1  0  0  0  0
 34 38  1  0  0  0  0
  7 31  1  0  0  0  0
 42 43  3  0  0  0  0
  1 42  1  0  0  0  0
M  END
> <PM6_ENERGY>
428.586

> <UID>
OVUQVWJBLPKYOT-NDNSDAMPNA-N

> <FITNESS>
1.14162

> <GCODE>
10446

> <GraphENC>
10446 72_1_0,81_66_1,115_55_1,87_66_1,211841_32_1,212034_36_1,211852_36_1, 72_0_81_0_SINGLE_Xlig:0_Xlig:1,72_2_115_1_SINGLE_scaff:0_MPhosphole:1,72_1_87_0_SINGLE_Xlig:0_Xlig:1,115_0_211841_0_SINGLE_LPhospholeSubR:0_SubRS:1,115_3_212034_0_SINGLE_LPhospholeSubAlpha:0_SubArS:1,115_2_211852_0_SINGLE_LPhospholeSubAlpha:0_SubArS:1, SymmetricSet [symIds=[212034, 211852]] 

> <GraphJson>
{
  "graphId": 10446,
  "gVertices": [
    {
      "lstAPs": [
        {
          "id": 276964,
          "atomPositionNumber": 0,
          "atomPositionNumberInMol": 0,
          "apClass": {
            "rule": "Xlig",
            "subClass": 0,
            "bndTyp": "SINGLE"
          },
          "dirVec": {
            "x": -2.3339,
            "y": -0.0087,
            "z": 0.8172
          }
        },
        {
          "id": 276965,
          "atomPositionNumber": 0,
          "atomPositionNumberInMol": 0,
          "apClass": {
            "rule": "Xlig",
            "subClass": 0,
            "bndTyp": "SINGLE"
          },
          "dirVec": {
            "x": 2.336,
            "y": -5.0E-4,
            "z": 0.829
          }
        },
        {
          "id": 276966,
          "atomPositionNumber": 0,
          "atomPositionNumberInMol": 0,
          "apClass": {
            "rule": "scaff",
            "subClass": 0,
            "bndTyp": "SINGLE"
          },
          "dirVec": {
            "x": -0.0095,
            "y": 0.0046,
            "z": -1.7113
          }
        }
      ],
      "lstSymAPs": [
        {
          "symIds": [
            0,
            1
          ]
        }
      ],
      "mol": {
        "atoms": [
          {
            "elSymbol": "Pt",
            "p3d": {
              "x": -0.0098,
              "y": 0.0049,
              "z": 0.6289
            }
          },
          {
            "elSymbol": "C",
            "p3d": {
              "x": -6.0E-4,
              "y": 0.0016,
              "z": 2.5609
            }
          },
          {
            "elSymbol": "O",
            "p3d": {
              "x": 0.0025,
              "y": -0.0041,
              "z": 3.6974
            }
          },
          {
            "elSymbol": "Du",
            "p3d": {
              "x": -0.007,
              "y": 1.0013,
              "z": 0.6372
            }
          },
          {
            "elSymbol": "Du",
            "p3d": {
              "x": -0.0014,
              "y": 0.9902,
              "z": 2.5698
            }
          }
        ],
        "bonds": [
          {
            "atomIds": [
              1,
              2
            ],
            "bo": "TRIPLE"
          },
          {
            "atomIds": [
              0,
              1
            ],
            "bo": "SINGLE"
          },
          {
            "atomIds": [
              3,
              0
            ],
            "bo": "SINGLE"
          },
          {
            "atomIds": [
              4,
              1
            ],
            "bo": "SINGLE"
          }
        ]
      },
      "vertexId": 72,
      "buildingBlockId": 0,
      "buildingBlockType": "SCAFFOLD",
      "isRCV": false,
      "properties": {
        "ATTACHMENT_POINTS": "1#Xlig:0:SINGLE:-2.3339%-0.0087%0.8172,Xlig:0:SINGLE:2.3360%-0.0005%0.8290,scaff:0:SINGLE:-0.0095%0.0046%-1.7113 "
      },
      "uniquefyingPropertyKeys": [],
      "allowedMutationTypes": [
        "DELETE",
        "EXTEND",
        "CHANGEBRANCH",
        "CHANGELINK",
        "ADDLINK",
        "DELETELINK",
        "DELETECHAIN"
      ],
      "vertexType": "MolecularFragment"
    },
    {
      "lstAPs": [
        {
          "id": 276967,
          "atomPositionNumber": 0,
          "atomPositionNumberInMol": 5,
          "apClass": {
            "rule": "Xlig",
            "subClass": 1,
            "bndTyp": "SINGLE"
          },
          "dirVec": {
            "x": 0.0192,
            "y": -0.0048,
            "z": -0.5645
          }
        }
      ],
      "lstSymAPs": [],
      "mol": {
        "atoms": [
          {
            "elSymbol": "C",
            "p3d": {
              "x": -1.967,
              "y": -0.0075,
              "z": -0.4937
            }
          },
          {
            "elSymbol": "N",
            "p3d": {
              "x": -3.1263,
              "y": -0.0054,
              "z": -0.4354
            }
          },
          {
            "elSymbol": "Du",
            "p3d": {
              "x": -1.9744,
              "y": 0.9926,
              "z": -0.5036
            }
          }
        ],
        "bonds": [
          {
            "atomIds": [
              0,
              1
            ],
            "bo": "TRIPLE"
          },
          {
            "atomIds": [
              2,
              0
            ],
            "bo": "SINGLE"
          }
        ]
      },
      "vertexId": 81,
      "buildingBlockId": 65,
      "buildingBlockType": "FRAGMENT",
      "isRCV": false,
      "properties": {
        "ATTACHMENT_POINTS": "1#Xlig:1:SINGLE:0.0192%-0.0048%-0.5645 "
      },
      "uniquefyingPropertyKeys": [],
      "allowedMutationTypes": [
        "DELETE",
        "EXTEND",
        "CHANGEBRANCH",
        "CHANGELINK",
        "ADDLINK",
        "DELETELINK",
        "DELETECHAIN"
      ],
      "vertexType": "MolecularFragment"
    },
    {
      "lstAPs": [
        {
          "id": 276968,
          "atomPositionNumber": 0,
          "atomPositionNumberInMol": 8,
          "apClass": {
            "rule": "LPhospholeSubR",
            "subClass": 0,
            "bndTyp": "SINGLE"
          },
          "dirVec": {
            "x": 4.21,
            "y": -5.7776,
            "z": -2.4063
          }
        },
        {
          "id": 276969,
          "atomPositionNumber": 0,
          "atomPositionNumberInMol": 8,
          "apClass": {
            "rule": "MPhosphole",
            "subClass": 1,
            "bndTyp": "SINGLE"
          },
          "dirVec": {
            "x": 1.5693,
            "y": -5.3781,
            "z": -4.7398
          }
        },
        {
          "id": 276970,
          "atomPositionNumber": 1,
          "atomPositionNumberInMol": 9,
          "apClass": {
            "rule": "LPhospholeSubAlpha",
            "subClass": 0,
            "bndTyp": "SINGLE"
          },
          "dirVec": {
            "x": 4.3472,
            "y": -8.5987,
            "z": -4.7607
          }
        },
        {
          "id": 276971,
          "atomPositionNumber": 4,
          "atomPositionNumberInMol": 12,
          "apClass": {
            "rule": "LPhospholeSubAlpha",
            "subClass": 0,
            "bndTyp": "SINGLE"
          },
          "dirVec": {
            "x": 4.7612,
            "y": -2.979,
            "z": -4.8399
          }
        }
      ],
      "lstSymAPs": [
        {
          "symIds": [
            2,
            3
          ]
        }
      ],
      "mol": {
        "atoms": [
          {
            "elSymbol": "P",
            "p3d": {
              "x": 3.7869,
              "y": -5.7373,
              "z": -4.1775
            }
          },
          {
            "elSymbol": "C",
            "p3d": {
              "x": 4.6962,
              "y": -7.134,
              "z": -4.9215
            }
          },
          {
            "elSymbol": "C",
            "p3d": {
              "x": 5.7131,
              "y": -6.6248,
              "z": -5.5939
            }
          },
          {
            "elSymbol": "C",
            "p3d": {
              "x": 5.829,
              "y": -5.1544,
              "z": -5.5761
            }
          },
          {
            "elSymbol": "C",
            "p3d": {
              "x": 4.9136,
              "y": -4.4844,
              "z": -4.9337
            }
          },
          {
            "elSymbol": "H",
            "p3d": {
              "x": 6.3586,
              "y": -7.3193,
              "z": -6.107
            }
          },
          {
            "elSymbol": "H",
            "p3d": {
              "x": 6.5956,
              "y": -4.5443,
              "z": -6.0507
            }
          }
        ],
        "bonds": [
          {
            "atomIds": [
              1,
              0
            ],
            "bo": "SINGLE"
          },
          {
            "atomIds": [
              2,
              1
            ],
            "bo": "DOUBLE"
          },
          {
            "atomIds": [
              3,
              2
            ],
            "bo": "SINGLE"
          },
          {
            "atomIds": [
              3,
              4
            ],
            "bo": "DOUBLE"
          },
          {
            "atomIds": [
              4,
              0
            ],
            "bo": "SINGLE"
          },
          {
            "atomIds": [
              2,
              5
            ],
            "bo": "SINGLE"
          },
          {
            "atomIds": [
              3,
              6
            ],
            "bo": "SINGLE"
          }
        ]
      },
      "vertexId": 115,
      "buildingBlockId": 54,
      "buildingBlockType": "FRAGMENT",
      "isRCV": false,
      "properties": {
        "ATTACHMENT_POINTS": "1#LPhospholeSubR:0:SINGLE:4.2100%-5.7776%-2.4063,MPhosphole:1:SINGLE:1.5693%-5.3781%-4.7398 2#LPhospholeSubAlpha:0:SINGLE:4.3472%-8.5987%-4.7607 5#LPhospholeSubAlpha:0:SINGLE:4.7612%-2.9790%-4.8399 "
      },
      "uniquefyingPropertyKeys": [],
      "allowedMutationTypes": [
        "DELETE",
        "EXTEND",
        "CHANGEBRANCH",
        "CHANGELINK",
        "ADDLINK",
        "DELETELINK",
        "DELETECHAIN"
      ],
      "vertexType": "MolecularFragment"
    },
    {
      "lstAPs": [
        {
          "id": 276972,
          "atomPositionNumber": 0,
          "atomPositionNumberInMol": 44,
          "apClass": {
            "rule": "Xlig",
            "subClass": 1,
            "bndTyp": "SINGLE"
          },
          "dirVec": {
            "x": 0.0192,
            "y": -0.0048,
            "z": -0.5645
          }
        }
      ],
      "lstSymAPs": [],
      "mol": {
        "atoms": [
          {
            "elSymbol": "C",
            "p3d": {
              "x": -1.967,
              "y": -0.0075,
              "z": -0.4937
            }
          },
          {
            "elSymbol": "N",
            "p3d": {
              "x": -3.1263,
              "y": -0.0054,
              "z": -0.4354
            }
          },
          {
            "elSymbol": "Du",
            "p3d": {
              "x": -1.9744,
              "y": 0.9926,
              "z": -0.5036
            }
          }
        ],
        "bonds": [
          {
            "atomIds": [
              0,
              1
            ],
            "bo": "TRIPLE"
          },
          {
            "atomIds": [
              2,
              0
            ],
            "bo": "SINGLE"
          }
        ]
      },
      "vertexId": 87,
      "buildingBlockId": 65,
      "buildingBlockType": "FRAGMENT",
      "isRCV": false,
      "properties": {
        "ATTACHMENT_POINTS": "1#Xlig:1:SINGLE:0.0192%-0.0048%-0.5645 "
      },
      "uniquefyingPropertyKeys": [],
      "allowedMutationTypes": [
        "DELETE",
        "EXTEND",
        "CHANGEBRANCH",
        "CHANGELINK",
        "ADDLINK",
        "DELETELINK",
        "DELETECHAIN"
      ],
      "vertexType": "MolecularFragment"
    },
    {
      "lstAPs": [
        {
          "id": 277009,
          "atomPositionNumber": 1,
          "atomPositionNumberInMol": 16,
          "apClass": {
            "rule": "SubRS",
            "subClass": 1,
            "bndTyp": "SINGLE"
          },
          "dirVec": {
            "x": 0.2985,
            "y": 0.384,
            "z": -0.6258
          }
        }
      ],
      "lstSymAPs": [],
      "mol": {
        "atoms": [
          {
            "elSymbol": "C",
            "p3d": {
              "x": -1.0244,
              "y": -0.2225,
              "z": 1.3991
            }
          },
          {
            "elSymbol": "C",
            "p3d": {
              "x": 0.3973,
              "y": -0.042,
              "z": 0.8195
            }
          },
          {
            "elSymbol": "H",
            "p3d": {
              "x": -1.5635,
              "y": -0.9908,
              "z": 0.8263
            }
          },
          {
            "elSymbol": "H",
            "p3d": {
              "x": -0.941,
              "y": -0.535,
              "z": 2.446
            }
          },
          {
            "elSymbol": "H",
            "p3d": {
              "x": -1.5586,
              "y": 0.7335,
              "z": 1.3382
            }
          },
          {
            "elSymbol": "H",
            "p3d": {
              "x": 0.9335,
              "y": 0.7221,
              "z": 1.4011
            }
          },
          {
            "elSymbol": "H",
            "p3d": {
              "x": 0.927,
              "y": -1.0102,
              "z": 0.9001
            }
          }
        ],
        "bonds": [
          {
            "atomIds": [
              0,
              1
            ],
            "bo": "SINGLE"
          },
          {
            "atomIds": [
              0,
              2
            ],
            "bo": "SINGLE"
          },
          {
            "atomIds": [
              0,
              3
            ],
            "bo": "SINGLE"
          },
          {
            "atomIds": [
              0,
              4
            ],
            "bo": "SINGLE"
          },
          {
            "atomIds": [
              1,
              5
            ],
            "bo": "SINGLE"
          },
          {
            "atomIds": [
              1,
              6
            ],
            "bo": "SINGLE"
          }
        ]
      },
      "vertexId": 211841,
      "buildingBlockId": 31,
      "buildingBlockType": "FRAGMENT",
      "isRCV": false,
      "properties": {
        "ATTACHMENT_POINTS": "2#SubRS:1:SINGLE:0.2985%0.3840%-0.6258 "
      },
      "uniquefyingPropertyKeys": [],
      "allowedMutationTypes": [
        "DELETE",
        "EXTEND",
        "CHANGEBRANCH",
        "CHANGELINK",
        "ADDLINK",
        "DELETELINK",
        "DELETECHAIN"
      ],
      "vertexType": "MolecularFragment"
    },
    {
      "lstAPs": [
        {
          "id": 277010,
          "atomPositionNumber": 0,
          "atomPositionNumberInMol": 22,
          "apClass": {
            "rule": "SubArS",
            "subClass": 1,
            "bndTyp": "SINGLE"
          },
          "dirVec": {
            "x": 0.2973,
            "y": 0.3873,
            "z": -0.6389
          }
        }
      ],
      "lstSymAPs": [],
      "mol": {
        "atoms": [
          {
            "elSymbol": "C",
            "p3d": {
              "x": 1.6995,
              "y": 0.5593,
              "z": -1.2083
            }
          },
          {
            "elSymbol": "C",
            "p3d": {
              "x": 4.2563,
              "y": 0.8754,
              "z": -2.2592
            }
          },
          {
            "elSymbol": "C",
            "p3d": {
              "x": 2.3334,
              "y": 1.79,
              "z": -1.1338
            }
          },
          {
            "elSymbol": "C",
            "p3d": {
              "x": 2.3422,
              "y": -0.5107,
              "z": -1.8125
            }
          },
          {
            "elSymbol": "C",
            "p3d": {
              "x": 3.612,
              "y": -0.3527,
              "z": -2.3321
            }
          },
          {
            "elSymbol": "C",
            "p3d": {
              "x": 3.6062,
              "y": 1.9513,
              "z": -1.6526
            }
          },
          {
            "elSymbol": "H",
            "p3d": {
              "x": 1.833,
              "y": 2.6461,
              "z": -0.6488
            }
          },
          {
            "elSymbol": "H",
            "p3d": {
              "x": 1.8361,
              "y": -1.4773,
              "z": -1.887
            }
          },
          {
            "elSymbol": "H",
            "p3d": {
              "x": 4.115,
              "y": -1.2043,
              "z": -2.8152
            }
          },
          {
            "elSymbol": "H",
            "p3d": {
              "x": 4.1097,
              "y": 2.9214,
              "z": -1.5842
            }
          },
          {
            "elSymbol": "H",
            "p3d": {
              "x": 5.2498,
              "y": 0.9926,
              "z": -2.665
            }
          }
        ],
        "bonds": [
          {
            "atomIds": [
              0,
              3
            ],
            "bo": "SINGLE"
          },
          {
            "atomIds": [
              3,
              4
            ],
            "bo": "DOUBLE"
          },
          {
            "atomIds": [
              1,
              4
            ],
            "bo": "SINGLE"
          },
          {
            "atomIds": [
              1,
              5
            ],
            "bo": "DOUBLE"
          },
          {
            "atomIds": [
              2,
              5
            ],
            "bo": "SINGLE"
          },
          {
            "atomIds": [
              0,
              2
            ],
            "bo": "DOUBLE"
          },
          {
            "atomIds": [
              4,
              8
            ],
            "bo": "SINGLE"
          },
          {
            "atomIds": [
              5,
              9
            ],
            "bo": "SINGLE"
          },
          {
            "atomIds": [
              1,
              10
            ],
            "bo": "SINGLE"
          },
          {
            "atomIds": [
              2,
              6
            ],
            "bo": "SINGLE"
          },
          {
            "atomIds": [
              3,
              7
            ],
            "bo": "SINGLE"
          }
        ]
      },
      "vertexId": 212034,
      "buildingBlockId": 35,
      "buildingBlockType": "FRAGMENT",
      "isRCV": false,
      "properties": {
        "ATTACHMENT_POINTS": "1#SubArS:1:SINGLE:0.2973%0.3873%-0.6389 "
      },
      "uniquefyingPropertyKeys": [],
      "allowedMutationTypes": [
        "DELETE",
        "EXTEND",
        "CHANGEBRANCH",
        "CHANGELINK",
        "ADDLINK",
        "DELETELINK",
        "DELETECHAIN"
      ],
      "vertexType": "MolecularFragment"
    },
    {
      "lstAPs": [
        {
          "id": 277011,
          "atomPositionNumber": 0,
          "atomPositionNumberInMol": 33,
          "apClass": {
            "rule": "SubArS",
            "subClass": 1,
            "bndTyp": "SINGLE"
          },
          "dirVec": {
            "x": 0.2973,
            "y": 0.3873,
            "z": -0.6389
          }
        }
      ],
      "lstSymAPs": [],
      "mol": {
        "atoms": [
          {
            "elSymbol": "C",
            "p3d": {
              "x": 1.6995,
              "y": 0.5593,
              "z": -1.2083
            }
          },
          {
            "elSymbol": "C",
            "p3d": {
              "x": 4.2563,
              "y": 0.8754,
              "z": -2.2592
            }
          },
          {
            "elSymbol": "C",
            "p3d": {
              "x": 2.3334,
              "y": 1.79,
              "z": -1.1338
            }
          },
          {
            "elSymbol": "C",
            "p3d": {
              "x": 2.3422,
              "y": -0.5107,
              "z": -1.8125
            }
          },
          {
            "elSymbol": "C",
            "p3d": {
              "x": 3.612,
              "y": -0.3527,
              "z": -2.3321
            }
          },
          {
            "elSymbol": "C",
            "p3d": {
              "x": 3.6062,
              "y": 1.9513,
              "z": -1.6526
            }
          },
          {
            "elSymbol": "H",
            "p3d": {
              "x": 1.833,
              "y": 2.6461,
              "z": -0.6488
            }
          },
          {
            "elSymbol": "H",
            "p3d": {
              "x": 1.8361,
              "y": -1.4773,
              "z": -1.887
            }
          },
          {
            "elSymbol": "H",
            "p3d": {
              "x": 4.115,
              "y": -1.2043,
              "z": -2.8152
            }
          },
          {
            "elSymbol": "H",
            "p3d": {
              "x": 4.1097,
              "y": 2.9214,
              "z": -1.5842
            }
          },
          {
            "elSymbol": "H",
            "p3d": {
              "x": 5.2498,
              "y": 0.9926,
              "z": -2.665
            }
          }
        ],
        "bonds": [
          {
            "atomIds": [
              0,
              3
            ],
            "bo": "SINGLE"
          },
          {
            "atomIds": [
              3,
              4
            ],
            "bo": "DOUBLE"
          },
          {
            "atomIds": [
              1,
              4
            ],
            "bo": "SINGLE"
          },
          {
            "atomIds": [
              1,
              5
            ],
            "bo": "DOUBLE"
          },
          {
            "atomIds": [
              2,
              5
            ],
            "bo": "SINGLE"
          },
          {
            "atomIds": [
              0,
              2
            ],
            "bo": "DOUBLE"
          },
          {
            "atomIds": [
              4,
              8
            ],
            "bo": "SINGLE"
          },
          {
            "atomIds": [
              5,
              9
            ],
            "bo": "SINGLE"
          },
          {
            "atomIds": [
              1,
              10
            ],
            "bo": "SINGLE"
          },
          {
            "atomIds": [
              2,
              6
            ],
            "bo": "SINGLE"
          },
          {
            "atomIds": [
              3,
              7
            ],
            "bo": "SINGLE"
          }
        ]
      },
      "vertexId": 211852,
      "buildingBlockId": 35,
      "buildingBlockType": "FRAGMENT",
      "isRCV": false,
      "properties": {
        "ATTACHMENT_POINTS": "1#SubArS:1:SINGLE:0.2973%0.3873%-0.6389 "
      },
      "uniquefyingPropertyKeys": [],
      "allowedMutationTypes": [
        "DELETE",
        "EXTEND",
        "CHANGEBRANCH",
        "CHANGELINK",
        "ADDLINK",
        "DELETELINK",
        "DELETECHAIN"
      ],
      "vertexType": "MolecularFragment"
    }
  ],
  "gEdges": [
    {
      "srcAPID": 276964,
      "trgAPID": 276967,
      "bondType": "SINGLE"
    },
    {
      "srcAPID": 276966,
      "trgAPID": 276969,
      "bondType": "SINGLE"
    },
    {
      "srcAPID": 276965,
      "trgAPID": 276972,
      "bondType": "SINGLE"
    },
    {
      "srcAPID": 276968,
      "trgAPID": 277009,
      "bondType": "SINGLE"
    },
    {
      "srcAPID": 276971,
      "trgAPID": 277010,
      "bondType": "SINGLE"
    },
    {
      "srcAPID": 276970,
      "trgAPID": 277011,
      "bondType": "SINGLE"
    }
  ],
  "gRings": [],
  "symVertices": [
    {
      "symIds": [
        212034,
        211852
      ]
    }
  ]
}

> <SMILES>
[Pt](C#O)(C#N)([P]1(C(=C(C(=C1C=2C(=C(C(=C(C2[H])[H])[H])[H])[H])[H])[H])C=3C(=C(C(=C(C3[H])[H])[H])[H])[H])C(C([H])([H])[H])([H])[H])C#N

$$$$
