M00000839
  CDK     04222208563D

 58 60  0  0  0  0  0  0  0  0999 V2000
    2.4116    0.1296   -0.1527 Pt  0  0  0  0  0  0  0  0  0  0  0  0
    4.3418    0.0960   -0.4617 C   0  0  0  0  0  0  0  0  0  0  0  0
    5.4674    0.0869   -0.6482 O   0  0  0  0  0  0  0  0  0  0  0  0
    2.3723    0.0548   -2.4995 S   0  0  0  0  0  0  0  0  0  0  0  0
    2.4432   -1.7313   -2.7971 C   0  0  0  0  0  0  0  0  0  0  0  0
    1.4316   -2.1413   -2.9017 H   0  0  0  0  0  0  0  0  0  0  0  0
    2.9603   -2.2550   -1.9890 H   0  0  0  0  0  0  0  0  0  0  0  0
    2.9868   -1.9073   -3.7331 H   0  0  0  0  0  0  0  0  0  0  0  0
    0.1357    0.1813    0.1214 P   0  0  0  0  0  0  0  0  0  0  0  0
   -0.4725    1.6882   -0.4598 N   0  0  0  0  0  0  0  0  0  0  0  0
    0.3940    2.6459   -1.1956 C   0  0  0  0  0  0  0  0  0  0  0  0
    1.4487    2.2827   -1.2579 H   0  0  0  0  0  0  0  0  0  0  0  0
    0.4215    3.6033   -0.6225 H   0  0  0  0  0  0  0  0  0  0  0  0
   -0.1790    2.8946   -2.6025 C   0  0  0  0  0  0  0  0  0  0  0  0
    0.4374    3.6455   -3.1302 H   0  0  0  0  0  0  0  0  0  0  0  0
   -0.1011    1.9656   -3.2045 H   0  0  0  0  0  0  0  0  0  0  0  0
   -1.6409    3.3561   -2.5259 C   0  0  0  0  0  0  0  0  0  0  0  0
   -2.0533    3.4653   -3.5468 H   0  0  0  0  0  0  0  0  0  0  0  0
   -1.6943    4.3615   -2.0656 H   0  0  0  0  0  0  0  0  0  0  0  0
   -2.4982    2.3688   -1.7213 C   0  0  0  0  0  0  0  0  0  0  0  0
   -3.5292    2.7507   -1.6158 H   0  0  0  0  0  0  0  0  0  0  0  0
   -2.5737    1.4060   -2.2765 H   0  0  0  0  0  0  0  0  0  0  0  0
   -1.8900    2.1055   -0.3288 C   0  0  0  0  0  0  0  0  0  0  0  0
   -1.9277    3.0424    0.2773 H   0  0  0  0  0  0  0  0  0  0  0  0
   -2.4911    1.3489    0.2194 H   0  0  0  0  0  0  0  0  0  0  0  0
   -0.5922   -0.0003    1.8221 C   0  0  0  0  0  0  0  0  0  0  0  0
   -1.6983   -0.3962    4.3615 C   0  0  0  0  0  0  0  0  0  0  0  0
   -0.4182    0.9857    2.8071 C   0  0  0  0  0  0  0  0  0  0  0  0
   -1.3429   -1.1508    2.0941 C   0  0  0  0  0  0  0  0  0  0  0  0
   -1.8921   -1.3557    3.3593 C   0  0  0  0  0  0  0  0  0  0  0  0
   -0.9770    0.7602    4.0860 C   0  0  0  0  0  0  0  0  0  0  0  0
   -1.5299   -1.9138    1.3318 H   0  0  0  0  0  0  0  0  0  0  0  0
   -2.4698   -2.2533    3.5675 H   0  0  0  0  0  0  0  0  0  0  0  0
   -0.8358    1.5058    4.8679 H   0  0  0  0  0  0  0  0  0  0  0  0
   -2.1184   -0.5553    5.3551 H   0  0  0  0  0  0  0  0  0  0  0  0
    0.2988    2.2752    2.5941 C   0  0  0  0  0  0  0  0  0  0  0  0
   -0.1908    2.9100    1.8424 H   0  0  0  0  0  0  0  0  0  0  0  0
    1.3470    2.1254    2.2668 H   0  0  0  0  0  0  0  0  0  0  0  0
    0.3738    2.8754    3.5118 H   0  0  0  0  0  0  0  0  0  0  0  0
   -0.5338   -1.2545   -0.8592 C   0  0  0  0  0  0  0  0  0  0  0  0
   -1.5296   -3.3869   -2.3605 C   0  0  0  0  0  0  0  0  0  0  0  0
    0.0035   -2.5390   -0.6687 C   0  0  0  0  0  0  0  0  0  0  0  0
   -1.5256   -1.0315   -1.8130 C   0  0  0  0  0  0  0  0  0  0  0  0
   -2.0309   -2.0986   -2.5635 C   0  0  0  0  0  0  0  0  0  0  0  0
   -0.5186   -3.6059   -1.4232 C   0  0  0  0  0  0  0  0  0  0  0  0
   -1.9234   -0.0249   -2.0136 H   0  0  0  0  0  0  0  0  0  0  0  0
   -2.8049   -1.9238   -3.3077 H   0  0  0  0  0  0  0  0  0  0  0  0
   -0.1258   -4.6115   -1.2826 H   0  0  0  0  0  0  0  0  0  0  0  0
   -1.9227   -4.2227   -2.9399 H   0  0  0  0  0  0  0  0  0  0  0  0
    1.1084   -2.8278    0.2977 C   0  0  0  0  0  0  0  0  0  0  0  0
    0.8023   -2.6744    1.3446 H   0  0  0  0  0  0  0  0  0  0  0  0
    2.0098   -2.2059    0.1118 H   0  0  0  0  0  0  0  0  0  0  0  0
    1.4553   -3.8700    0.2360 H   0  0  0  0  0  0  0  0  0  0  0  0
    3.1720    0.3588    2.0478 S   0  0  0  0  0  0  0  0  0  0  0  0
    2.6270   -1.1106    2.9540 C   0  0  0  0  0  0  0  0  0  0  0  0
    3.1300   -1.1082    3.9301 H   0  0  0  0  0  0  0  0  0  0  0  0
    2.9047   -2.0288    2.4313 H   0  0  0  0  0  0  0  0  0  0  0  0
    1.5464   -1.0908    3.1293 H   0  0  0  0  0  0  0  0  0  0  0  0
  2  3  3  0  0  0  0
  1  2  1  0  0  0  0
  5  6  1  0  0  0  0
  5  7  1  0  0  0  0
  5  8  1  0  0  0  0
  4  5  1  0  0  0  0
  1  4  1  0  0  0  0
  1  9  1  0  0  0  0
 11 10  1  0  0  0  0
 12 11  1  0  0  0  0
 13 11  1  0  0  0  0
 14 11  1  0  0  0  0
 15 14  1  0  0  0  0
 16 14  1  0  0  0  0
 17 14  1  0  0  0  0
 18 17  1  0  0  0  0
 19 17  1  0  0  0  0
 20 17  1  0  0  0  0
 21 20  1  0  0  0  0
 22 20  1  0  0  0  0
 23 10  1  0  0  0  0
 24 23  1  0  0  0  0
 25 23  1  0  0  0  0
 20 23  1  0  0  0  0
  9 10  1  0  0  0  0
 26 29  1  0  0  0  0
 29 30  2  0  0  0  0
 27 30  1  0  0  0  0
 27 31  2  0  0  0  0
 28 31  1  0  0  0  0
 26 28  2  0  0  0  0
 30 33  1  0  0  0  0
 31 34  1  0  0  0  0
 27 35  1  0  0  0  0
 29 32  1  0  0  0  0
 36 37  1  0  0  0  0
 36 38  1  0  0  0  0
 36 39  1  0  0  0  0
 28 36  1  0  0  0  0
  9 26  1  0  0  0  0
 40 43  1  0  0  0  0
 43 44  2  0  0  0  0
 41 44  1  0  0  0  0
 41 45  2  0  0  0  0
 42 45  1  0  0  0  0
 40 42  2  0  0  0  0
 44 47  1  0  0  0  0
 45 48  1  0  0  0  0
 41 49  1  0  0  0  0
 43 46  1  0  0  0  0
 50 51  1  0  0  0  0
 50 52  1  0  0  0  0
 50 53  1  0  0  0  0
 42 50  1  0  0  0  0
  9 40  1  0  0  0  0
 55 56  1  0  0  0  0
 55 57  1  0  0  0  0
 55 58  1  0  0  0  0
 54 55  1  0  0  0  0
  1 54  1  0  0  0  0
M  END
> <PM6_ENERGY>
-44.051

> <UID>
NKXNKQOPFJWREF-ITKBACEENA-L

> <FITNESS>
1.14098

> <GCODE>
1412

> <GraphENC>
1412 72_1_0,79_64_1,101_4_1,85_64_1,23404_8_1,23647_37_1,23417_37_1, 72_0_79_0_SINGLE_Xlig:0_Xlig:1,72_2_101_3_SINGLE_scaff:0_MMonoAminoPhosphine:1,72_1_85_0_SINGLE_Xlig:0_Xlig:1,101_0_23404_0_SINGLE_LMonoAminoPhosphineN:0_LAminoPhosphineCycloN:1,101_2_23647_0_SINGLE_LMonoAminoPhosphineSubR:0_SubArM:1,101_1_23417_0_SINGLE_LMonoAminoPhosphineSubR:0_SubArM:1, SymmetricSet [symIds=[23647, 23417]] 

> <GraphJson>
{
  "graphId": 1412,
  "gVertices": [
    {
      "lstAPs": [
        {
          "id": 32461,
          "atomPositionNumber": 0,
          "atomPositionNumberInMol": 0,
          "apClass": {
            "rule": "Xlig",
            "subClass": 0,
            "bndTyp": "SINGLE"
          },
          "dirVec": {
            "x": -2.3339,
            "y": -0.0087,
            "z": 0.8172
          }
        },
        {
          "id": 32462,
          "atomPositionNumber": 0,
          "atomPositionNumberInMol": 0,
          "apClass": {
            "rule": "Xlig",
            "subClass": 0,
            "bndTyp": "SINGLE"
          },
          "dirVec": {
            "x": 2.336,
            "y": -5.0E-4,
            "z": 0.829
          }
        },
        {
          "id": 32463,
          "atomPositionNumber": 0,
          "atomPositionNumberInMol": 0,
          "apClass": {
            "rule": "scaff",
            "subClass": 0,
            "bndTyp": "SINGLE"
          },
          "dirVec": {
            "x": -0.0095,
            "y": 0.0046,
            "z": -1.7113
          }
        }
      ],
      "lstSymAPs": [
        {
          "symIds": [
            0,
            1
          ]
        }
      ],
      "mol": {
        "atoms": [
          {
            "elSymbol": "Pt",
            "p3d": {
              "x": -0.0098,
              "y": 0.0049,
              "z": 0.6289
            }
          },
          {
            "elSymbol": "C",
            "p3d": {
              "x": -6.0E-4,
              "y": 0.0016,
              "z": 2.5609
            }
          },
          {
            "elSymbol": "O",
            "p3d": {
              "x": 0.0025,
              "y": -0.0041,
              "z": 3.6974
            }
          },
          {
            "elSymbol": "Du",
            "p3d": {
              "x": -0.007,
              "y": 1.0013,
              "z": 0.6372
            }
          },
          {
            "elSymbol": "Du",
            "p3d": {
              "x": -0.0014,
              "y": 0.9902,
              "z": 2.5698
            }
          }
        ],
        "bonds": [
          {
            "atomIds": [
              1,
              2
            ],
            "bo": "TRIPLE"
          },
          {
            "atomIds": [
              0,
              1
            ],
            "bo": "SINGLE"
          },
          {
            "atomIds": [
              3,
              0
            ],
            "bo": "SINGLE"
          },
          {
            "atomIds": [
              4,
              1
            ],
            "bo": "SINGLE"
          }
        ]
      },
      "vertexId": 72,
      "buildingBlockId": 0,
      "buildingBlockType": "SCAFFOLD",
      "isRCV": false,
      "properties": {
        "ATTACHMENT_POINTS": "1#Xlig:0:SINGLE:-2.3339%-0.0087%0.8172,Xlig:0:SINGLE:2.3360%-0.0005%0.8290,scaff:0:SINGLE:-0.0095%0.0046%-1.7113 "
      },
      "uniquefyingPropertyKeys": [],
      "allowedMutationTypes": [
        "DELETE",
        "EXTEND",
        "CHANGEBRANCH",
        "CHANGELINK",
        "ADDLINK",
        "DELETELINK",
        "DELETECHAIN"
      ],
      "vertexType": "MolecularFragment"
    },
    {
      "lstAPs": [
        {
          "id": 32464,
          "atomPositionNumber": 0,
          "atomPositionNumberInMol": 5,
          "apClass": {
            "rule": "Xlig",
            "subClass": 1,
            "bndTyp": "SINGLE"
          },
          "dirVec": {
            "x": -0.102,
            "y": 0.0185,
            "z": -1.0265
          }
        }
      ],
      "lstSymAPs": [],
      "mol": {
        "atoms": [
          {
            "elSymbol": "S",
            "p3d": {
              "x": -0.3267,
              "y": 2.3403,
              "z": -1.0022
            }
          },
          {
            "elSymbol": "C",
            "p3d": {
              "x": -0.626,
              "y": 2.4866,
              "z": 0.7805
            }
          },
          {
            "elSymbol": "H",
            "p3d": {
              "x": 0.1766,
              "y": 3.089,
              "z": 1.2414
            }
          },
          {
            "elSymbol": "H",
            "p3d": {
              "x": -0.651,
              "y": 1.5065,
              "z": 1.2643
            }
          },
          {
            "elSymbol": "H",
            "p3d": {
              "x": -1.5658,
              "y": 2.981,
              "z": 0.9515
            }
          }
        ],
        "bonds": [
          {
            "atomIds": [
              1,
              2
            ],
            "bo": "SINGLE"
          },
          {
            "atomIds": [
              1,
              3
            ],
            "bo": "SINGLE"
          },
          {
            "atomIds": [
              1,
              4
            ],
            "bo": "SINGLE"
          },
          {
            "atomIds": [
              0,
              1
            ],
            "bo": "SINGLE"
          }
        ]
      },
      "vertexId": 79,
      "buildingBlockId": 63,
      "buildingBlockType": "FRAGMENT",
      "isRCV": false,
      "properties": {
        "ATTACHMENT_POINTS": "1#Xlig:1:SINGLE:-0.1020%0.0185%-1.0265 "
      },
      "uniquefyingPropertyKeys": [],
      "allowedMutationTypes": [
        "DELETE",
        "EXTEND",
        "CHANGEBRANCH",
        "CHANGELINK",
        "ADDLINK",
        "DELETELINK",
        "DELETECHAIN"
      ],
      "vertexType": "MolecularFragment"
    },
    {
      "lstAPs": [
        {
          "id": 32465,
          "atomPositionNumber": 0,
          "atomPositionNumberInMol": 10,
          "apClass": {
            "rule": "LMonoAminoPhosphineN",
            "subClass": 0,
            "bndTyp": "SINGLE"
          },
          "dirVec": {
            "x": 3.1471,
            "y": 10.0719,
            "z": 6.8843
          }
        },
        {
          "id": 32466,
          "atomPositionNumber": 0,
          "atomPositionNumberInMol": 10,
          "apClass": {
            "rule": "LMonoAminoPhosphineSubR",
            "subClass": 0,
            "bndTyp": "SINGLE"
          },
          "dirVec": {
            "x": 0.3842,
            "y": 9.4902,
            "z": 6.7015
          }
        },
        {
          "id": 32467,
          "atomPositionNumber": 0,
          "atomPositionNumberInMol": 10,
          "apClass": {
            "rule": "LMonoAminoPhosphineSubR",
            "subClass": 0,
            "bndTyp": "SINGLE"
          },
          "dirVec": {
            "x": 2.2197,
            "y": 7.8057,
            "z": 8.2724
          }
        },
        {
          "id": 32468,
          "atomPositionNumber": 0,
          "atomPositionNumberInMol": 10,
          "apClass": {
            "rule": "MMonoAminoPhosphine",
            "subClass": 1,
            "bndTyp": "SINGLE"
          },
          "dirVec": {
            "x": 2.6023,
            "y": 7.6121,
            "z": 4.8117
          }
        }
      ],
      "lstSymAPs": [
        {
          "symIds": [
            1,
            2
          ]
        }
      ],
      "mol": {
        "atoms": [
          {
            "elSymbol": "P",
            "p3d": {
              "x": 2.1045,
              "y": 8.7901,
              "z": 6.7495
            }
          }
        ],
        "bonds": []
      },
      "vertexId": 101,
      "buildingBlockId": 3,
      "buildingBlockType": "FRAGMENT",
      "isRCV": false,
      "properties": {
        "ATTACHMENT_POINTS": "1#LMonoAminoPhosphineN:0:SINGLE:3.1471%10.0719%6.8843,LMonoAminoPhosphineSubR:0:SINGLE:0.3842%9.4902%6.7015,LMonoAminoPhosphineSubR:0:SINGLE:2.2197%7.8057%8.2724,MMonoAminoPhosphine:1:SINGLE:2.6023%7.6121%4.8117 "
      },
      "uniquefyingPropertyKeys": [],
      "allowedMutationTypes": [
        "DELETE",
        "EXTEND",
        "CHANGEBRANCH",
        "CHANGELINK",
        "ADDLINK",
        "DELETELINK",
        "DELETECHAIN"
      ],
      "vertexType": "MolecularFragment"
    },
    {
      "lstAPs": [
        {
          "id": 32469,
          "atomPositionNumber": 0,
          "atomPositionNumberInMol": 55,
          "apClass": {
            "rule": "Xlig",
            "subClass": 1,
            "bndTyp": "SINGLE"
          },
          "dirVec": {
            "x": -0.102,
            "y": 0.0185,
            "z": -1.0265
          }
        }
      ],
      "lstSymAPs": [],
      "mol": {
        "atoms": [
          {
            "elSymbol": "S",
            "p3d": {
              "x": -0.3267,
              "y": 2.3403,
              "z": -1.0022
            }
          },
          {
            "elSymbol": "C",
            "p3d": {
              "x": -0.626,
              "y": 2.4866,
              "z": 0.7805
            }
          },
          {
            "elSymbol": "H",
            "p3d": {
              "x": 0.1766,
              "y": 3.089,
              "z": 1.2414
            }
          },
          {
            "elSymbol": "H",
            "p3d": {
              "x": -0.651,
              "y": 1.5065,
              "z": 1.2643
            }
          },
          {
            "elSymbol": "H",
            "p3d": {
              "x": -1.5658,
              "y": 2.981,
              "z": 0.9515
            }
          }
        ],
        "bonds": [
          {
            "atomIds": [
              1,
              2
            ],
            "bo": "SINGLE"
          },
          {
            "atomIds": [
              1,
              3
            ],
            "bo": "SINGLE"
          },
          {
            "atomIds": [
              1,
              4
            ],
            "bo": "SINGLE"
          },
          {
            "atomIds": [
              0,
              1
            ],
            "bo": "SINGLE"
          }
        ]
      },
      "vertexId": 85,
      "buildingBlockId": 63,
      "buildingBlockType": "FRAGMENT",
      "isRCV": false,
      "properties": {
        "ATTACHMENT_POINTS": "1#Xlig:1:SINGLE:-0.1020%0.0185%-1.0265 "
      },
      "uniquefyingPropertyKeys": [],
      "allowedMutationTypes": [
        "DELETE",
        "EXTEND",
        "CHANGEBRANCH",
        "CHANGELINK",
        "ADDLINK",
        "DELETELINK",
        "DELETECHAIN"
      ],
      "vertexType": "MolecularFragment"
    },
    {
      "lstAPs": [
        {
          "id": 32506,
          "atomPositionNumber": 0,
          "atomPositionNumberInMol": 11,
          "apClass": {
            "rule": "LAminoPhosphineCycloN",
            "subClass": 1,
            "bndTyp": "SINGLE"
          },
          "dirVec": {
            "x": 4.555,
            "y": 2.7674,
            "z": 17.4338
          }
        }
      ],
      "lstSymAPs": [],
      "mol": {
        "atoms": [
          {
            "elSymbol": "N",
            "p3d": {
              "x": 2.9381,
              "y": 2.7068,
              "z": 17.7892
            }
          },
          {
            "elSymbol": "C",
            "p3d": {
              "x": 2.2822,
              "y": 1.6786,
              "z": 18.5885
            }
          },
          {
            "elSymbol": "H",
            "p3d": {
              "x": 3.041,
              "y": 1.1815,
              "z": 19.2164
            }
          },
          {
            "elSymbol": "H",
            "p3d": {
              "x": 1.8455,
              "y": 0.9233,
              "z": 17.9289
            }
          },
          {
            "elSymbol": "C",
            "p3d": {
              "x": 1.221,
              "y": 2.2587,
              "z": 19.4673
            }
          },
          {
            "elSymbol": "H",
            "p3d": {
              "x": 0.7008,
              "y": 1.4356,
              "z": 19.9909
            }
          },
          {
            "elSymbol": "H",
            "p3d": {
              "x": 1.6761,
              "y": 2.9055,
              "z": 20.224
            }
          },
          {
            "elSymbol": "C",
            "p3d": {
              "x": 0.2145,
              "y": 3.0313,
              "z": 18.6782
            }
          },
          {
            "elSymbol": "H",
            "p3d": {
              "x": -0.4814,
              "y": 3.5202,
              "z": 19.3328
            }
          },
          {
            "elSymbol": "H",
            "p3d": {
              "x": -0.3461,
              "y": 2.3431,
              "z": 18.0363
            }
          },
          {
            "elSymbol": "C",
            "p3d": {
              "x": 0.9189,
              "y": 4.0677,
              "z": 17.8031
            }
          },
          {
            "elSymbol": "H",
            "p3d": {
              "x": 0.1705,
              "y": 4.5445,
              "z": 17.1575
            }
          },
          {
            "elSymbol": "H",
            "p3d": {
              "x": 1.3757,
              "y": 4.8286,
              "z": 18.4283
            }
          },
          {
            "elSymbol": "C",
            "p3d": {
              "x": 1.9754,
              "y": 3.4167,
              "z": 16.9636
            }
          },
          {
            "elSymbol": "H",
            "p3d": {
              "x": 1.4943,
              "y": 2.7385,
              "z": 16.2522
            }
          },
          {
            "elSymbol": "H",
            "p3d": {
              "x": 2.4831,
              "y": 4.1915,
              "z": 16.365
            }
          }
        ],
        "bonds": [
          {
            "atomIds": [
              1,
              0
            ],
            "bo": "SINGLE"
          },
          {
            "atomIds": [
              2,
              1
            ],
            "bo": "SINGLE"
          },
          {
            "atomIds": [
              3,
              1
            ],
            "bo": "SINGLE"
          },
          {
            "atomIds": [
              4,
              1
            ],
            "bo": "SINGLE"
          },
          {
            "atomIds": [
              5,
              4
            ],
            "bo": "SINGLE"
          },
          {
            "atomIds": [
              6,
              4
            ],
            "bo": "SINGLE"
          },
          {
            "atomIds": [
              7,
              4
            ],
            "bo": "SINGLE"
          },
          {
            "atomIds": [
              8,
              7
            ],
            "bo": "SINGLE"
          },
          {
            "atomIds": [
              9,
              7
            ],
            "bo": "SINGLE"
          },
          {
            "atomIds": [
              10,
              7
            ],
            "bo": "SINGLE"
          },
          {
            "atomIds": [
              11,
              10
            ],
            "bo": "SINGLE"
          },
          {
            "atomIds": [
              12,
              10
            ],
            "bo": "SINGLE"
          },
          {
            "atomIds": [
              13,
              0
            ],
            "bo": "SINGLE"
          },
          {
            "atomIds": [
              14,
              13
            ],
            "bo": "SINGLE"
          },
          {
            "atomIds": [
              15,
              13
            ],
            "bo": "SINGLE"
          },
          {
            "atomIds": [
              10,
              13
            ],
            "bo": "SINGLE"
          }
        ]
      },
      "vertexId": 23404,
      "buildingBlockId": 7,
      "buildingBlockType": "FRAGMENT",
      "isRCV": false,
      "properties": {
        "ATTACHMENT_POINTS": "1#LAminoPhosphineCycloN:1:SINGLE:4.5550%2.7674%17.4338 "
      },
      "uniquefyingPropertyKeys": [],
      "allowedMutationTypes": [
        "DELETE",
        "EXTEND",
        "CHANGEBRANCH",
        "CHANGELINK",
        "ADDLINK",
        "DELETELINK",
        "DELETECHAIN"
      ],
      "vertexType": "MolecularFragment"
    },
    {
      "lstAPs": [
        {
          "id": 32507,
          "atomPositionNumber": 0,
          "atomPositionNumberInMol": 27,
          "apClass": {
            "rule": "SubArM",
            "subClass": 1,
            "bndTyp": "SINGLE"
          },
          "dirVec": {
            "x": 0.3016,
            "y": 0.3831,
            "z": -0.6449
          }
        }
      ],
      "lstSymAPs": [],
      "mol": {
        "atoms": [
          {
            "elSymbol": "C",
            "p3d": {
              "x": 1.7096,
              "y": 0.5525,
              "z": -1.2136
            }
          },
          {
            "elSymbol": "C",
            "p3d": {
              "x": 4.2502,
              "y": 0.8767,
              "z": -2.2636
            }
          },
          {
            "elSymbol": "C",
            "p3d": {
              "x": 2.3368,
              "y": 1.7899,
              "z": -1.1199
            }
          },
          {
            "elSymbol": "C",
            "p3d": {
              "x": 2.344,
              "y": -0.5151,
              "z": -1.819
            }
          },
          {
            "elSymbol": "C",
            "p3d": {
              "x": 3.6162,
              "y": -0.3625,
              "z": -2.3439
            }
          },
          {
            "elSymbol": "C",
            "p3d": {
              "x": 3.6039,
              "y": 1.9353,
              "z": -1.6584
            }
          },
          {
            "elSymbol": "H",
            "p3d": {
              "x": 1.8411,
              "y": -1.493,
              "z": -1.8837
            }
          },
          {
            "elSymbol": "H",
            "p3d": {
              "x": 4.113,
              "y": -1.2006,
              "z": -2.8069
            }
          },
          {
            "elSymbol": "H",
            "p3d": {
              "x": 4.1107,
              "y": 2.9115,
              "z": -1.5913
            }
          },
          {
            "elSymbol": "H",
            "p3d": {
              "x": 5.2516,
              "y": 0.992,
              "z": -2.67
            }
          },
          {
            "elSymbol": "C",
            "p3d": {
              "x": 1.6301,
              "y": 2.9729,
              "z": -0.4606
            }
          },
          {
            "elSymbol": "H",
            "p3d": {
              "x": 2.3743,
              "y": 3.6775,
              "z": -0.0646
            }
          },
          {
            "elSymbol": "H",
            "p3d": {
              "x": 1.0016,
              "y": 2.6144,
              "z": 0.3512
            }
          },
          {
            "elSymbol": "H",
            "p3d": {
              "x": 1.0097,
              "y": 3.4845,
              "z": -1.1971
            }
          }
        ],
        "bonds": [
          {
            "atomIds": [
              0,
              3
            ],
            "bo": "SINGLE"
          },
          {
            "atomIds": [
              3,
              4
            ],
            "bo": "DOUBLE"
          },
          {
            "atomIds": [
              1,
              4
            ],
            "bo": "SINGLE"
          },
          {
            "atomIds": [
              1,
              5
            ],
            "bo": "DOUBLE"
          },
          {
            "atomIds": [
              2,
              5
            ],
            "bo": "SINGLE"
          },
          {
            "atomIds": [
              0,
              2
            ],
            "bo": "DOUBLE"
          },
          {
            "atomIds": [
              4,
              7
            ],
            "bo": "SINGLE"
          },
          {
            "atomIds": [
              5,
              8
            ],
            "bo": "SINGLE"
          },
          {
            "atomIds": [
              1,
              9
            ],
            "bo": "SINGLE"
          },
          {
            "atomIds": [
              3,
              6
            ],
            "bo": "SINGLE"
          },
          {
            "atomIds": [
              10,
              11
            ],
            "bo": "SINGLE"
          },
          {
            "atomIds": [
              10,
              12
            ],
            "bo": "SINGLE"
          },
          {
            "atomIds": [
              10,
              13
            ],
            "bo": "SINGLE"
          },
          {
            "atomIds": [
              2,
              10
            ],
            "bo": "SINGLE"
          }
        ]
      },
      "vertexId": 23647,
      "buildingBlockId": 36,
      "buildingBlockType": "FRAGMENT",
      "isRCV": false,
      "properties": {
        "ATTACHMENT_POINTS": "1#SubArM:1:SINGLE:0.3016%0.3831%-0.6449 "
      },
      "uniquefyingPropertyKeys": [],
      "allowedMutationTypes": [
        "DELETE",
        "EXTEND",
        "CHANGEBRANCH",
        "CHANGELINK",
        "ADDLINK",
        "DELETELINK",
        "DELETECHAIN"
      ],
      "vertexType": "MolecularFragment"
    },
    {
      "lstAPs": [
        {
          "id": 32508,
          "atomPositionNumber": 0,
          "atomPositionNumberInMol": 41,
          "apClass": {
            "rule": "SubArM",
            "subClass": 1,
            "bndTyp": "SINGLE"
          },
          "dirVec": {
            "x": 0.3016,
            "y": 0.3831,
            "z": -0.6449
          }
        }
      ],
      "lstSymAPs": [],
      "mol": {
        "atoms": [
          {
            "elSymbol": "C",
            "p3d": {
              "x": 1.7096,
              "y": 0.5525,
              "z": -1.2136
            }
          },
          {
            "elSymbol": "C",
            "p3d": {
              "x": 4.2502,
              "y": 0.8767,
              "z": -2.2636
            }
          },
          {
            "elSymbol": "C",
            "p3d": {
              "x": 2.3368,
              "y": 1.7899,
              "z": -1.1199
            }
          },
          {
            "elSymbol": "C",
            "p3d": {
              "x": 2.344,
              "y": -0.5151,
              "z": -1.819
            }
          },
          {
            "elSymbol": "C",
            "p3d": {
              "x": 3.6162,
              "y": -0.3625,
              "z": -2.3439
            }
          },
          {
            "elSymbol": "C",
            "p3d": {
              "x": 3.6039,
              "y": 1.9353,
              "z": -1.6584
            }
          },
          {
            "elSymbol": "H",
            "p3d": {
              "x": 1.8411,
              "y": -1.493,
              "z": -1.8837
            }
          },
          {
            "elSymbol": "H",
            "p3d": {
              "x": 4.113,
              "y": -1.2006,
              "z": -2.8069
            }
          },
          {
            "elSymbol": "H",
            "p3d": {
              "x": 4.1107,
              "y": 2.9115,
              "z": -1.5913
            }
          },
          {
            "elSymbol": "H",
            "p3d": {
              "x": 5.2516,
              "y": 0.992,
              "z": -2.67
            }
          },
          {
            "elSymbol": "C",
            "p3d": {
              "x": 1.6301,
              "y": 2.9729,
              "z": -0.4606
            }
          },
          {
            "elSymbol": "H",
            "p3d": {
              "x": 2.3743,
              "y": 3.6775,
              "z": -0.0646
            }
          },
          {
            "elSymbol": "H",
            "p3d": {
              "x": 1.0016,
              "y": 2.6144,
              "z": 0.3512
            }
          },
          {
            "elSymbol": "H",
            "p3d": {
              "x": 1.0097,
              "y": 3.4845,
              "z": -1.1971
            }
          }
        ],
        "bonds": [
          {
            "atomIds": [
              0,
              3
            ],
            "bo": "SINGLE"
          },
          {
            "atomIds": [
              3,
              4
            ],
            "bo": "DOUBLE"
          },
          {
            "atomIds": [
              1,
              4
            ],
            "bo": "SINGLE"
          },
          {
            "atomIds": [
              1,
              5
            ],
            "bo": "DOUBLE"
          },
          {
            "atomIds": [
              2,
              5
            ],
            "bo": "SINGLE"
          },
          {
            "atomIds": [
              0,
              2
            ],
            "bo": "DOUBLE"
          },
          {
            "atomIds": [
              4,
              7
            ],
            "bo": "SINGLE"
          },
          {
            "atomIds": [
              5,
              8
            ],
            "bo": "SINGLE"
          },
          {
            "atomIds": [
              1,
              9
            ],
            "bo": "SINGLE"
          },
          {
            "atomIds": [
              3,
              6
            ],
            "bo": "SINGLE"
          },
          {
            "atomIds": [
              10,
              11
            ],
            "bo": "SINGLE"
          },
          {
            "atomIds": [
              10,
              12
            ],
            "bo": "SINGLE"
          },
          {
            "atomIds": [
              10,
              13
            ],
            "bo": "SINGLE"
          },
          {
            "atomIds": [
              2,
              10
            ],
            "bo": "SINGLE"
          }
        ]
      },
      "vertexId": 23417,
      "buildingBlockId": 36,
      "buildingBlockType": "FRAGMENT",
      "isRCV": false,
      "properties": {
        "ATTACHMENT_POINTS": "1#SubArM:1:SINGLE:0.3016%0.3831%-0.6449 "
      },
      "uniquefyingPropertyKeys": [],
      "allowedMutationTypes": [
        "DELETE",
        "EXTEND",
        "CHANGEBRANCH",
        "CHANGELINK",
        "ADDLINK",
        "DELETELINK",
        "DELETECHAIN"
      ],
      "vertexType": "MolecularFragment"
    }
  ],
  "gEdges": [
    {
      "srcAPID": 32461,
      "trgAPID": 32464,
      "bondType": "SINGLE"
    },
    {
      "srcAPID": 32463,
      "trgAPID": 32468,
      "bondType": "SINGLE"
    },
    {
      "srcAPID": 32462,
      "trgAPID": 32469,
      "bondType": "SINGLE"
    },
    {
      "srcAPID": 32465,
      "trgAPID": 32506,
      "bondType": "SINGLE"
    },
    {
      "srcAPID": 32467,
      "trgAPID": 32507,
      "bondType": "SINGLE"
    },
    {
      "srcAPID": 32466,
      "trgAPID": 32508,
      "bondType": "SINGLE"
    }
  ],
  "gRings": [],
  "symVertices": [
    {
      "symIds": [
        23647,
        23417
      ]
    }
  ]
}

> <SMILES>
[Pt](C#O)(SC([H])([H])[H])([P](N1C([H])([H])C([H])([H])C([H])([H])C([H])([H])C1([H])[H])(C=2C(=C(C(=C(C2C([H])([H])[H])[H])[H])[H])[H])C=3C(=C(C(=C(C3C([H])([H])[H])[H])[H])[H])[H])SC([H])([H])[H]

$$$$
