M00021294
  CDK     04222216193D

 56 60  0  0  0  0  0  0  0  0999 V2000
   -3.4426    1.0469   -1.2631 Pt  0  0  0  0  0  0  0  0  0  0  0  0
   -5.3823    1.3831   -1.1908 C   0  0  0  0  0  0  0  0  0  0  0  0
   -6.4968    1.6225   -1.1357 O   0  0  0  0  0  0  0  0  0  0  0  0
   -2.6223    2.9105   -0.9114 O   0  0  0  0  0  0  0  0  0  0  0  0
   -2.9980    3.4656    0.3316 C   0  0  0  0  0  0  0  0  0  0  0  0
   -2.4643    4.4243    0.4001 H   0  0  0  0  0  0  0  0  0  0  0  0
   -2.6889    2.8029    1.1573 H   0  0  0  0  0  0  0  0  0  0  0  0
   -4.0819    3.6263    0.3429 H   0  0  0  0  0  0  0  0  0  0  0  0
   -1.2054    1.0309   -1.2643 P   0  0  0  0  0  0  0  0  0  0  0  0
   -0.4135    1.5536    0.1221 O   0  0  0  0  0  0  0  0  0  0  0  0
   -0.5848   -0.5182   -1.5008 O   0  0  0  0  0  0  0  0  0  0  0  0
   -0.4033    0.6105    1.1604 C   0  0  0  0  0  0  0  0  0  0  0  0
   -1.2452    0.9118    2.2675 C   0  0  0  0  0  0  0  0  0  0  0  0
   -1.8784    1.8049    2.2092 H   0  0  0  0  0  0  0  0  0  0  0  0
   -1.2206    0.0811    3.3552 C   0  0  0  0  0  0  0  0  0  0  0  0
   -1.8375    0.2890    4.2302 H   0  0  0  0  0  0  0  0  0  0  0  0
   -0.3970   -1.0919    3.3562 C   0  0  0  0  0  0  0  0  0  0  0  0
   -0.4155   -1.9890    4.4713 C   0  0  0  0  0  0  0  0  0  0  0  0
   -1.0388   -1.7407    5.3299 H   0  0  0  0  0  0  0  0  0  0  0  0
    0.3310   -3.1398    4.4544 C   0  0  0  0  0  0  0  0  0  0  0  0
    0.3214   -3.8275    5.2990 H   0  0  0  0  0  0  0  0  0  0  0  0
    1.1284   -3.4578    3.3174 C   0  0  0  0  0  0  0  0  0  0  0  0
    1.6950   -4.3887    3.3178 H   0  0  0  0  0  0  0  0  0  0  0  0
    1.1755   -2.6087    2.2406 C   0  0  0  0  0  0  0  0  0  0  0  0
    1.7756   -2.8600    1.3636 H   0  0  0  0  0  0  0  0  0  0  0  0
    0.4293   -1.3866    2.2372 C   0  0  0  0  0  0  0  0  0  0  0  0
    0.4656   -0.4686    1.1282 C   0  0  0  0  0  0  0  0  0  0  0  0
    1.3412   -0.6654   -0.0410 C   0  0  0  0  0  0  0  0  0  0  0  0
    2.7686   -0.8113    0.0732 C   0  0  0  0  0  0  0  0  0  0  0  0
    3.4537   -0.6649    1.3221 C   0  0  0  0  0  0  0  0  0  0  0  0
    2.8741   -0.4142    2.2126 H   0  0  0  0  0  0  0  0  0  0  0  0
    4.8150   -0.8182    1.3987 C   0  0  0  0  0  0  0  0  0  0  0  0
    5.3358   -0.7029    2.3489 H   0  0  0  0  0  0  0  0  0  0  0  0
    5.5750   -1.1247    0.2333 C   0  0  0  0  0  0  0  0  0  0  0  0
    6.6526   -1.2510    0.3263 H   0  0  0  0  0  0  0  0  0  0  0  0
    4.9511   -1.2466   -0.9822 C   0  0  0  0  0  0  0  0  0  0  0  0
    5.5224   -1.4681   -1.8832 H   0  0  0  0  0  0  0  0  0  0  0  0
    3.5343   -1.0773   -1.0947 C   0  0  0  0  0  0  0  0  0  0  0  0
    2.8933   -1.1518   -2.3739 C   0  0  0  0  0  0  0  0  0  0  0  0
    3.5015   -1.3693   -3.2528 H   0  0  0  0  0  0  0  0  0  0  0  0
    1.5467   -0.9332   -2.4938 C   0  0  0  0  0  0  0  0  0  0  0  0
    1.0283   -0.9531   -3.4525 H   0  0  0  0  0  0  0  0  0  0  0  0
    0.7942   -0.6710   -1.3149 C   0  0  0  0  0  0  0  0  0  0  0  0
   -0.4071    1.8881   -2.4032 O   0  0  0  0  0  0  0  0  0  0  0  0
   -0.3910    3.1661   -4.3570 C   0  0  0  0  0  0  0  0  0  0  0  0
   -1.1888    2.9473   -3.0904 C   0  0  0  0  0  0  0  0  0  0  0  0
   -0.4751    2.3173   -5.0478 H   0  0  0  0  0  0  0  0  0  0  0  0
   -0.7215    4.0695   -4.8842 H   0  0  0  0  0  0  0  0  0  0  0  0
    0.6801    3.2827   -4.1295 H   0  0  0  0  0  0  0  0  0  0  0  0
   -1.1898    3.8273   -2.4130 H   0  0  0  0  0  0  0  0  0  0  0  0
   -2.2262    2.6092   -3.2817 H   0  0  0  0  0  0  0  0  0  0  0  0
   -4.1560   -0.7767   -1.7759 O   0  0  0  0  0  0  0  0  0  0  0  0
   -3.3838   -1.8180   -1.2132 C   0  0  0  0  0  0  0  0  0  0  0  0
   -3.9737   -2.7318   -1.3757 H   0  0  0  0  0  0  0  0  0  0  0  0
   -3.2381   -1.6477   -0.1400 H   0  0  0  0  0  0  0  0  0  0  0  0
   -2.4217   -1.8965   -1.7408 H   0  0  0  0  0  0  0  0  0  0  0  0
  2  3  3  0  0  0  0
  1  2  1  0  0  0  0
  5  6  1  0  0  0  0
  5  7  1  0  0  0  0
  5  8  1  0  0  0  0
  4  5  1  0  0  0  0
  1  4  1  0  0  0  0
 10  9  1  0  0  0  0
 11  9  1  0  0  0  0
 12 10  1  0  0  0  0
 13 12  2  0  0  0  0
 14 13  1  0  0  0  0
 15 13  1  0  0  0  0
 16 15  1  0  0  0  0
 17 15  2  0  0  0  0
 18 17  1  0  0  0  0
 19 18  1  0  0  0  0
 20 18  2  0  0  0  0
 21 20  1  0  0  0  0
 22 20  1  0  0  0  0
 23 22  1  0  0  0  0
 24 22  2  0  0  0  0
 24 26  1  0  0  0  0
 25 24  1  0  0  0  0
 26 17  1  0  0  0  0
 26 27  2  0  0  0  0
 27 12  1  0  0  0  0
 28 27  1  0  0  0  0
 28 43  1  0  0  0  0
 29 28  2  0  0  0  0
 30 29  1  0  0  0  0
 31 30  1  0  0  0  0
 32 30  2  0  0  0  0
 33 32  1  0  0  0  0
 34 32  1  0  0  0  0
 35 34  1  0  0  0  0
 36 34  2  0  0  0  0
 36 38  1  0  0  0  0
 37 36  1  0  0  0  0
 38 29  1  0  0  0  0
 39 38  2  0  0  0  0
 40 39  1  0  0  0  0
 41 39  1  0  0  0  0
 41 43  2  0  0  0  0
 42 41  1  0  0  0  0
 43 11  1  0  0  0  0
  1  9  1  0  0  0  0
  9 44  1  0  0  0  0
 45 46  1  0  0  0  0
 45 47  1  0  0  0  0
 45 48  1  0  0  0  0
 45 49  1  0  0  0  0
 46 50  1  0  0  0  0
 46 51  1  0  0  0  0
 44 46  1  0  0  0  0
 53 54  1  0  0  0  0
 53 55  1  0  0  0  0
 53 56  1  0  0  0  0
 52 53  1  0  0  0  0
  1 52  1  0  0  0  0
M  END
> <PM6_ENERGY>
-623.964

> <UID>
VEDNSNVHLVKHEQ-XQGUGXFZNA-N

> <FITNESS>
1.14125

> <GCODE>
22655

> <GraphENC>
22655 72_1_0,80_65_1,111_50_1,86_65_1,73979_52_1,560858_32_1, 72_0_80_0_SINGLE_Xlig:0_Xlig:1,72_2_111_1_SINGLE_scaff:0_MPhosphite:1,72_1_86_0_SINGLE_Xlig:0_Xlig:1,111_0_73979_0_SINGLE_LPhosphiteSubO:0_LPhosphiteSubO:1,73979_1_560858_0_SINGLE_OPhosphiteSub:1_SubRS:1, 

> <GraphJson>
{
  "graphId": 22655,
  "gVertices": [
    {
      "lstAPs": [
        {
          "id": 622980,
          "atomPositionNumber": 0,
          "atomPositionNumberInMol": 0,
          "apClass": {
            "rule": "Xlig",
            "subClass": 0,
            "bndTyp": "SINGLE"
          },
          "dirVec": {
            "x": -2.3339,
            "y": -0.0087,
            "z": 0.8172
          }
        },
        {
          "id": 622981,
          "atomPositionNumber": 0,
          "atomPositionNumberInMol": 0,
          "apClass": {
            "rule": "Xlig",
            "subClass": 0,
            "bndTyp": "SINGLE"
          },
          "dirVec": {
            "x": 2.336,
            "y": -5.0E-4,
            "z": 0.829
          }
        },
        {
          "id": 622982,
          "atomPositionNumber": 0,
          "atomPositionNumberInMol": 0,
          "apClass": {
            "rule": "scaff",
            "subClass": 0,
            "bndTyp": "SINGLE"
          },
          "dirVec": {
            "x": -0.0095,
            "y": 0.0046,
            "z": -1.7113
          }
        }
      ],
      "lstSymAPs": [
        {
          "symIds": [
            0,
            1
          ]
        }
      ],
      "mol": {
        "atoms": [
          {
            "elSymbol": "Pt",
            "p3d": {
              "x": -0.0098,
              "y": 0.0049,
              "z": 0.6289
            }
          },
          {
            "elSymbol": "C",
            "p3d": {
              "x": -6.0E-4,
              "y": 0.0016,
              "z": 2.5609
            }
          },
          {
            "elSymbol": "O",
            "p3d": {
              "x": 0.0025,
              "y": -0.0041,
              "z": 3.6974
            }
          },
          {
            "elSymbol": "Du",
            "p3d": {
              "x": -0.007,
              "y": 1.0013,
              "z": 0.6372
            }
          },
          {
            "elSymbol": "Du",
            "p3d": {
              "x": -0.0014,
              "y": 0.9902,
              "z": 2.5698
            }
          }
        ],
        "bonds": [
          {
            "atomIds": [
              1,
              2
            ],
            "bo": "TRIPLE"
          },
          {
            "atomIds": [
              0,
              1
            ],
            "bo": "SINGLE"
          },
          {
            "atomIds": [
              3,
              0
            ],
            "bo": "SINGLE"
          },
          {
            "atomIds": [
              4,
              1
            ],
            "bo": "SINGLE"
          }
        ]
      },
      "vertexId": 72,
      "buildingBlockId": 0,
      "buildingBlockType": "SCAFFOLD",
      "isRCV": false,
      "properties": {
        "ATTACHMENT_POINTS": "1#Xlig:0:SINGLE:-2.3339%-0.0087%0.8172,Xlig:0:SINGLE:2.3360%-0.0005%0.8290,scaff:0:SINGLE:-0.0095%0.0046%-1.7113 "
      },
      "uniquefyingPropertyKeys": [],
      "allowedMutationTypes": [
        "DELETE",
        "EXTEND",
        "CHANGEBRANCH",
        "CHANGELINK",
        "ADDLINK",
        "DELETELINK",
        "DELETECHAIN"
      ],
      "vertexType": "MolecularFragment"
    },
    {
      "lstAPs": [
        {
          "id": 622983,
          "atomPositionNumber": 0,
          "atomPositionNumberInMol": 5,
          "apClass": {
            "rule": "Xlig",
            "subClass": 1,
            "bndTyp": "SINGLE"
          },
          "dirVec": {
            "x": -0.1753,
            "y": 0.0948,
            "z": -0.4464
          }
        }
      ],
      "lstSymAPs": [],
      "mol": {
        "atoms": [
          {
            "elSymbol": "O",
            "p3d": {
              "x": -0.3534,
              "y": 2.1044,
              "z": -0.7339
            }
          },
          {
            "elSymbol": "C",
            "p3d": {
              "x": -0.5345,
              "y": 2.7646,
              "z": 0.4801
            }
          },
          {
            "elSymbol": "H",
            "p3d": {
              "x": -0.3728,
              "y": 3.8337,
              "z": 0.2724
            }
          },
          {
            "elSymbol": "H",
            "p3d": {
              "x": 0.1816,
              "y": 2.4161,
              "z": 1.2384
            }
          },
          {
            "elSymbol": "H",
            "p3d": {
              "x": -1.553,
              "y": 2.6149,
              "z": 0.8489
            }
          }
        ],
        "bonds": [
          {
            "atomIds": [
              1,
              2
            ],
            "bo": "SINGLE"
          },
          {
            "atomIds": [
              1,
              3
            ],
            "bo": "SINGLE"
          },
          {
            "atomIds": [
              1,
              4
            ],
            "bo": "SINGLE"
          },
          {
            "atomIds": [
              0,
              1
            ],
            "bo": "SINGLE"
          }
        ]
      },
      "vertexId": 80,
      "buildingBlockId": 64,
      "buildingBlockType": "FRAGMENT",
      "isRCV": false,
      "properties": {
        "ATTACHMENT_POINTS": "1#Xlig:1:SINGLE:-0.1753%0.0948%-0.4464 "
      },
      "uniquefyingPropertyKeys": [],
      "allowedMutationTypes": [
        "DELETE",
        "EXTEND",
        "CHANGEBRANCH",
        "CHANGELINK",
        "ADDLINK",
        "DELETELINK",
        "DELETECHAIN"
      ],
      "vertexType": "MolecularFragment"
    },
    {
      "lstAPs": [
        {
          "id": 622984,
          "atomPositionNumber": 0,
          "atomPositionNumberInMol": 10,
          "apClass": {
            "rule": "LPhosphiteSubO",
            "subClass": 0,
            "bndTyp": "SINGLE"
          },
          "dirVec": {
            "x": 7.8978,
            "y": 2.2953,
            "z": -1.0004
          }
        },
        {
          "id": 622985,
          "atomPositionNumber": 0,
          "atomPositionNumberInMol": 10,
          "apClass": {
            "rule": "MPhosphite",
            "subClass": 1,
            "bndTyp": "SINGLE"
          },
          "dirVec": {
            "x": 8.1055,
            "y": 3.5873,
            "z": 1.9978
          }
        }
      ],
      "lstSymAPs": [],
      "mol": {
        "atoms": [
          {
            "elSymbol": "P",
            "p3d": {
              "x": 7.9084,
              "y": 1.9754,
              "z": 0.5292
            }
          },
          {
            "elSymbol": "O",
            "p3d": {
              "x": 9.0676,
              "y": 0.8826,
              "z": 0.4629
            }
          },
          {
            "elSymbol": "O",
            "p3d": {
              "x": 6.6295,
              "y": 1.0833,
              "z": 0.8378
            }
          },
          {
            "elSymbol": "C",
            "p3d": {
              "x": 9.1253,
              "y": -0.1058,
              "z": 1.5323
            }
          },
          {
            "elSymbol": "C",
            "p3d": {
              "x": 10.1483,
              "y": 0.0879,
              "z": 2.4774
            }
          },
          {
            "elSymbol": "H",
            "p3d": {
              "x": 10.8506,
              "y": 0.9254,
              "z": 2.3567
            }
          },
          {
            "elSymbol": "C",
            "p3d": {
              "x": 10.266,
              "y": -0.7624,
              "z": 3.5022
            }
          },
          {
            "elSymbol": "H",
            "p3d": {
              "x": 11.0535,
              "y": -0.661,
              "z": 4.2292
            }
          },
          {
            "elSymbol": "C",
            "p3d": {
              "x": 9.3117,
              "y": -1.8292,
              "z": 3.6241
            }
          },
          {
            "elSymbol": "C",
            "p3d": {
              "x": 9.3872,
              "y": -2.7418,
              "z": 4.7564
            }
          },
          {
            "elSymbol": "H",
            "p3d": {
              "x": 10.1945,
              "y": -2.6628,
              "z": 5.4815
            }
          },
          {
            "elSymbol": "C",
            "p3d": {
              "x": 8.4129,
              "y": -3.6623,
              "z": 4.9017
            }
          },
          {
            "elSymbol": "H",
            "p3d": {
              "x": 8.4465,
              "y": -4.3006,
              "z": 5.782
            }
          },
          {
            "elSymbol": "C",
            "p3d": {
              "x": 7.4123,
              "y": -3.8689,
              "z": 3.9886
            }
          },
          {
            "elSymbol": "H",
            "p3d": {
              "x": 6.6644,
              "y": -4.6462,
              "z": 4.1245
            }
          },
          {
            "elSymbol": "C",
            "p3d": {
              "x": 7.362,
              "y": -2.9904,
              "z": 2.8379
            }
          },
          {
            "elSymbol": "H",
            "p3d": {
              "x": 6.5752,
              "y": -3.1171,
              "z": 2.102
            }
          },
          {
            "elSymbol": "C",
            "p3d": {
              "x": 8.2931,
              "y": -2.0283,
              "z": 2.6386
            }
          },
          {
            "elSymbol": "C",
            "p3d": {
              "x": 8.2222,
              "y": -1.1106,
              "z": 1.5036
            }
          },
          {
            "elSymbol": "C",
            "p3d": {
              "x": 7.2264,
              "y": -1.2173,
              "z": 0.4606
            }
          },
          {
            "elSymbol": "C",
            "p3d": {
              "x": 7.0184,
              "y": -2.412,
              "z": -0.3736
            }
          },
          {
            "elSymbol": "C",
            "p3d": {
              "x": 7.8626,
              "y": -3.5428,
              "z": -0.2234
            }
          },
          {
            "elSymbol": "H",
            "p3d": {
              "x": 8.6354,
              "y": -3.5405,
              "z": 0.5507
            }
          },
          {
            "elSymbol": "C",
            "p3d": {
              "x": 7.682,
              "y": -4.6511,
              "z": -1.0479
            }
          },
          {
            "elSymbol": "H",
            "p3d": {
              "x": 8.311,
              "y": -5.5242,
              "z": -0.9425
            }
          },
          {
            "elSymbol": "C",
            "p3d": {
              "x": 6.7355,
              "y": -4.6351,
              "z": -2.0117
            }
          },
          {
            "elSymbol": "H",
            "p3d": {
              "x": 6.5863,
              "y": -5.522,
              "z": -2.6583
            }
          },
          {
            "elSymbol": "C",
            "p3d": {
              "x": 5.9066,
              "y": -3.5062,
              "z": -2.2127
            }
          },
          {
            "elSymbol": "H",
            "p3d": {
              "x": 5.1559,
              "y": -3.5321,
              "z": -3.0139
            }
          },
          {
            "elSymbol": "C",
            "p3d": {
              "x": 6.0185,
              "y": -2.3785,
              "z": -1.4005
            }
          },
          {
            "elSymbol": "C",
            "p3d": {
              "x": 5.2406,
              "y": -1.2493,
              "z": -1.6114
            }
          },
          {
            "elSymbol": "H",
            "p3d": {
              "x": 4.4697,
              "y": -1.2606,
              "z": -2.3785
            }
          },
          {
            "elSymbol": "C",
            "p3d": {
              "x": 5.4446,
              "y": -0.1476,
              "z": -0.8639
            }
          },
          {
            "elSymbol": "H",
            "p3d": {
              "x": 4.8409,
              "y": 0.7494,
              "z": -1.0205
            }
          },
          {
            "elSymbol": "C",
            "p3d": {
              "x": 6.4251,
              "y": -0.1479,
              "z": 0.1006
            }
          }
        ],
        "bonds": [
          {
            "atomIds": [
              1,
              0
            ],
            "bo": "SINGLE"
          },
          {
            "atomIds": [
              2,
              0
            ],
            "bo": "SINGLE"
          },
          {
            "atomIds": [
              3,
              1
            ],
            "bo": "SINGLE"
          },
          {
            "atomIds": [
              4,
              3
            ],
            "bo": "DOUBLE"
          },
          {
            "atomIds": [
              5,
              4
            ],
            "bo": "SINGLE"
          },
          {
            "atomIds": [
              6,
              4
            ],
            "bo": "SINGLE"
          },
          {
            "atomIds": [
              7,
              6
            ],
            "bo": "SINGLE"
          },
          {
            "atomIds": [
              8,
              6
            ],
            "bo": "DOUBLE"
          },
          {
            "atomIds": [
              9,
              8
            ],
            "bo": "SINGLE"
          },
          {
            "atomIds": [
              10,
              9
            ],
            "bo": "SINGLE"
          },
          {
            "atomIds": [
              11,
              9
            ],
            "bo": "DOUBLE"
          },
          {
            "atomIds": [
              12,
              11
            ],
            "bo": "SINGLE"
          },
          {
            "atomIds": [
              13,
              11
            ],
            "bo": "SINGLE"
          },
          {
            "atomIds": [
              14,
              13
            ],
            "bo": "SINGLE"
          },
          {
            "atomIds": [
              15,
              13
            ],
            "bo": "DOUBLE"
          },
          {
            "atomIds": [
              15,
              17
            ],
            "bo": "SINGLE"
          },
          {
            "atomIds": [
              16,
              15
            ],
            "bo": "SINGLE"
          },
          {
            "atomIds": [
              17,
              8
            ],
            "bo": "SINGLE"
          },
          {
            "atomIds": [
              17,
              18
            ],
            "bo": "DOUBLE"
          },
          {
            "atomIds": [
              18,
              3
            ],
            "bo": "SINGLE"
          },
          {
            "atomIds": [
              19,
              18
            ],
            "bo": "SINGLE"
          },
          {
            "atomIds": [
              19,
              34
            ],
            "bo": "SINGLE"
          },
          {
            "atomIds": [
              20,
              19
            ],
            "bo": "DOUBLE"
          },
          {
            "atomIds": [
              21,
              20
            ],
            "bo": "SINGLE"
          },
          {
            "atomIds": [
              22,
              21
            ],
            "bo": "SINGLE"
          },
          {
            "atomIds": [
              23,
              21
            ],
            "bo": "DOUBLE"
          },
          {
            "atomIds": [
              24,
              23
            ],
            "bo": "SINGLE"
          },
          {
            "atomIds": [
              25,
              23
            ],
            "bo": "SINGLE"
          },
          {
            "atomIds": [
              26,
              25
            ],
            "bo": "SINGLE"
          },
          {
            "atomIds": [
              27,
              25
            ],
            "bo": "DOUBLE"
          },
          {
            "atomIds": [
              27,
              29
            ],
            "bo": "SINGLE"
          },
          {
            "atomIds": [
              28,
              27
            ],
            "bo": "SINGLE"
          },
          {
            "atomIds": [
              29,
              20
            ],
            "bo": "SINGLE"
          },
          {
            "atomIds": [
              30,
              29
            ],
            "bo": "DOUBLE"
          },
          {
            "atomIds": [
              31,
              30
            ],
            "bo": "SINGLE"
          },
          {
            "atomIds": [
              32,
              30
            ],
            "bo": "SINGLE"
          },
          {
            "atomIds": [
              32,
              34
            ],
            "bo": "DOUBLE"
          },
          {
            "atomIds": [
              33,
              32
            ],
            "bo": "SINGLE"
          },
          {
            "atomIds": [
              34,
              2
            ],
            "bo": "SINGLE"
          }
        ]
      },
      "vertexId": 111,
      "buildingBlockId": 49,
      "buildingBlockType": "FRAGMENT",
      "isRCV": false,
      "properties": {
        "ATTACHMENT_POINTS": "1#LPhosphiteSubO:0:SINGLE:7.8978%2.2953%-1.0004,MPhosphite:1:SINGLE:8.1055%3.5873%1.9978 "
      },
      "uniquefyingPropertyKeys": [],
      "allowedMutationTypes": [
        "DELETE",
        "EXTEND",
        "CHANGEBRANCH",
        "CHANGELINK",
        "ADDLINK",
        "DELETELINK",
        "DELETECHAIN"
      ],
      "vertexType": "MolecularFragment"
    },
    {
      "lstAPs": [
        {
          "id": 622986,
          "atomPositionNumber": 0,
          "atomPositionNumberInMol": 53,
          "apClass": {
            "rule": "Xlig",
            "subClass": 1,
            "bndTyp": "SINGLE"
          },
          "dirVec": {
            "x": -0.1753,
            "y": 0.0948,
            "z": -0.4464
          }
        }
      ],
      "lstSymAPs": [],
      "mol": {
        "atoms": [
          {
            "elSymbol": "O",
            "p3d": {
              "x": -0.3534,
              "y": 2.1044,
              "z": -0.7339
            }
          },
          {
            "elSymbol": "C",
            "p3d": {
              "x": -0.5345,
              "y": 2.7646,
              "z": 0.4801
            }
          },
          {
            "elSymbol": "H",
            "p3d": {
              "x": -0.3728,
              "y": 3.8337,
              "z": 0.2724
            }
          },
          {
            "elSymbol": "H",
            "p3d": {
              "x": 0.1816,
              "y": 2.4161,
              "z": 1.2384
            }
          },
          {
            "elSymbol": "H",
            "p3d": {
              "x": -1.553,
              "y": 2.6149,
              "z": 0.8489
            }
          }
        ],
        "bonds": [
          {
            "atomIds": [
              1,
              2
            ],
            "bo": "SINGLE"
          },
          {
            "atomIds": [
              1,
              3
            ],
            "bo": "SINGLE"
          },
          {
            "atomIds": [
              1,
              4
            ],
            "bo": "SINGLE"
          },
          {
            "atomIds": [
              0,
              1
            ],
            "bo": "SINGLE"
          }
        ]
      },
      "vertexId": 86,
      "buildingBlockId": 64,
      "buildingBlockType": "FRAGMENT",
      "isRCV": false,
      "properties": {
        "ATTACHMENT_POINTS": "1#Xlig:1:SINGLE:-0.1753%0.0948%-0.4464 "
      },
      "uniquefyingPropertyKeys": [],
      "allowedMutationTypes": [
        "DELETE",
        "EXTEND",
        "CHANGEBRANCH",
        "CHANGELINK",
        "ADDLINK",
        "DELETELINK",
        "DELETECHAIN"
      ],
      "vertexType": "MolecularFragment"
    },
    {
      "lstAPs": [
        {
          "id": 622987,
          "atomPositionNumber": 0,
          "atomPositionNumberInMol": 45,
          "apClass": {
            "rule": "LPhosphiteSubO",
            "subClass": 1,
            "bndTyp": "SINGLE"
          },
          "dirVec": {
            "x": 0.7035,
            "y": 2.9119,
            "z": 2.8175
          }
        },
        {
          "id": 622988,
          "atomPositionNumber": 0,
          "atomPositionNumberInMol": 45,
          "apClass": {
            "rule": "OPhosphiteSub",
            "subClass": 1,
            "bndTyp": "SINGLE"
          },
          "dirVec": {
            "x": 0.0564,
            "y": 5.2897,
            "z": 1.9394
          }
        }
      ],
      "lstSymAPs": [],
      "mol": {
        "atoms": [
          {
            "elSymbol": "O",
            "p3d": {
              "x": -0.1418,
              "y": 4.2412,
              "z": 2.9314
            }
          }
        ],
        "bonds": []
      },
      "vertexId": 73979,
      "buildingBlockId": 51,
      "buildingBlockType": "FRAGMENT",
      "isRCV": false,
      "properties": {
        "ATTACHMENT_POINTS": "1#LPhosphiteSubO:1:SINGLE:0.7035%2.9119%2.8175,OPhosphiteSub:1:SINGLE:0.0564%5.2897%1.9394 "
      },
      "uniquefyingPropertyKeys": [],
      "allowedMutationTypes": [
        "DELETE",
        "EXTEND",
        "CHANGEBRANCH",
        "CHANGELINK",
        "ADDLINK",
        "DELETELINK",
        "DELETECHAIN"
      ],
      "vertexType": "MolecularFragment"
    },
    {
      "lstAPs": [
        {
          "id": 623019,
          "atomPositionNumber": 1,
          "atomPositionNumberInMol": 47,
          "apClass": {
            "rule": "SubRS",
            "subClass": 1,
            "bndTyp": "SINGLE"
          },
          "dirVec": {
            "x": 0.2985,
            "y": 0.384,
            "z": -0.6258
          }
        }
      ],
      "lstSymAPs": [],
      "mol": {
        "atoms": [
          {
            "elSymbol": "C",
            "p3d": {
              "x": -1.0244,
              "y": -0.2225,
              "z": 1.3991
            }
          },
          {
            "elSymbol": "C",
            "p3d": {
              "x": 0.3973,
              "y": -0.042,
              "z": 0.8195
            }
          },
          {
            "elSymbol": "H",
            "p3d": {
              "x": -1.5635,
              "y": -0.9908,
              "z": 0.8263
            }
          },
          {
            "elSymbol": "H",
            "p3d": {
              "x": -0.941,
              "y": -0.535,
              "z": 2.446
            }
          },
          {
            "elSymbol": "H",
            "p3d": {
              "x": -1.5586,
              "y": 0.7335,
              "z": 1.3382
            }
          },
          {
            "elSymbol": "H",
            "p3d": {
              "x": 0.9335,
              "y": 0.7221,
              "z": 1.4011
            }
          },
          {
            "elSymbol": "H",
            "p3d": {
              "x": 0.927,
              "y": -1.0102,
              "z": 0.9001
            }
          }
        ],
        "bonds": [
          {
            "atomIds": [
              0,
              1
            ],
            "bo": "SINGLE"
          },
          {
            "atomIds": [
              0,
              2
            ],
            "bo": "SINGLE"
          },
          {
            "atomIds": [
              0,
              3
            ],
            "bo": "SINGLE"
          },
          {
            "atomIds": [
              0,
              4
            ],
            "bo": "SINGLE"
          },
          {
            "atomIds": [
              1,
              5
            ],
            "bo": "SINGLE"
          },
          {
            "atomIds": [
              1,
              6
            ],
            "bo": "SINGLE"
          }
        ]
      },
      "vertexId": 560858,
      "buildingBlockId": 31,
      "buildingBlockType": "FRAGMENT",
      "isRCV": false,
      "properties": {
        "ATTACHMENT_POINTS": "2#SubRS:1:SINGLE:0.2985%0.3840%-0.6258 "
      },
      "uniquefyingPropertyKeys": [],
      "allowedMutationTypes": [
        "DELETE",
        "EXTEND",
        "CHANGEBRANCH",
        "CHANGELINK",
        "ADDLINK",
        "DELETELINK",
        "DELETECHAIN"
      ],
      "vertexType": "MolecularFragment"
    }
  ],
  "gEdges": [
    {
      "srcAPID": 622980,
      "trgAPID": 622983,
      "bondType": "SINGLE"
    },
    {
      "srcAPID": 622982,
      "trgAPID": 622985,
      "bondType": "SINGLE"
    },
    {
      "srcAPID": 622981,
      "trgAPID": 622986,
      "bondType": "SINGLE"
    },
    {
      "srcAPID": 622984,
      "trgAPID": 622987,
      "bondType": "SINGLE"
    },
    {
      "srcAPID": 622988,
      "trgAPID": 623019,
      "bondType": "SINGLE"
    }
  ],
  "gRings": [],
  "symVertices": []
}

> <SMILES>
[Pt](C#O)(OC([H])([H])[H])([P]1(OC2=C([H])C([H])=C3C([H])=C([H])C([H])=C(C3=C2C=4C(=C(C(=C5C(=C(C(=C(C45)[H])[H])[H])[H])[H])[H])O1)[H])OC(C([H])([H])[H])([H])[H])OC([H])([H])[H]

$$$$
