M00002008
  CDK     04222209223D

 45 46  0  0  0  0  0  0  0  0999 V2000
   -2.4544    1.0278    0.3115 Pt  0  0  0  0  0  0  0  0  0  0  0  0
   -4.3815    1.2381    0.2984 C   0  0  0  0  0  0  0  0  0  0  0  0
   -5.5226    1.3285    0.3078 O   0  0  0  0  0  0  0  0  0  0  0  0
   -1.5055    2.5765   -0.6887 O   0  0  0  0  0  0  0  0  0  0  0  0
   -2.3854    3.6023   -1.0815 C   0  0  0  0  0  0  0  0  0  0  0  0
   -2.8902    4.0121   -0.1976 H   0  0  0  0  0  0  0  0  0  0  0  0
   -3.1120    3.2069   -1.8023 H   0  0  0  0  0  0  0  0  0  0  0  0
   -1.7664    4.3767   -1.5545 H   0  0  0  0  0  0  0  0  0  0  0  0
    0.5381   -0.7679    1.1975 C   0  0  0  0  0  0  0  0  0  0  0  0
    1.3414   -1.3498    0.2828 C   0  0  0  0  0  0  0  0  0  0  0  0
    2.0598   -2.6426    0.5215 C   0  0  0  0  0  0  0  0  0  0  0  0
    1.3208   -3.4710    0.4395 H   0  0  0  0  0  0  0  0  0  0  0  0
    2.4346   -2.6824    1.5662 H   0  0  0  0  0  0  0  0  0  0  0  0
    3.2199   -2.8885   -0.4495 C   0  0  0  0  0  0  0  0  0  0  0  0
    4.0697   -2.2236   -0.1996 H   0  0  0  0  0  0  0  0  0  0  0  0
    3.5956   -3.9223   -0.3309 H   0  0  0  0  0  0  0  0  0  0  0  0
    2.7728   -2.6468   -1.8938 C   0  0  0  0  0  0  0  0  0  0  0  0
    1.9184   -3.3075   -2.1408 H   0  0  0  0  0  0  0  0  0  0  0  0
    3.5817   -2.9181   -2.5979 H   0  0  0  0  0  0  0  0  0  0  0  0
    2.3752   -1.1809   -2.0977 C   0  0  0  0  0  0  0  0  0  0  0  0
    3.2875   -0.5445   -2.1278 H   0  0  0  0  0  0  0  0  0  0  0  0
    1.8994   -1.0589   -3.0946 H   0  0  0  0  0  0  0  0  0  0  0  0
    1.4668   -0.6492   -1.0323 C   0  0  0  0  0  0  0  0  0  0  0  0
    0.7556    0.4889   -1.1801 C   0  0  0  0  0  0  0  0  0  0  0  0
   -0.1878    0.7634    0.4041 P   0  0  0  0  0  0  0  0  0  0  0  0
    0.2001   -1.1711    2.5714 C   0  0  0  0  0  0  0  0  0  0  0  0
   -0.8910   -1.3203    2.7020 H   0  0  0  0  0  0  0  0  0  0  0  0
    0.6755   -2.1209    2.8569 H   0  0  0  0  0  0  0  0  0  0  0  0
    0.5120   -0.4232    3.3173 H   0  0  0  0  0  0  0  0  0  0  0  0
    0.6743    1.4142   -2.3208 C   0  0  0  0  0  0  0  0  0  0  0  0
    0.5654    0.8766   -3.2749 H   0  0  0  0  0  0  0  0  0  0  0  0
   -0.1896    2.1113   -2.2506 H   0  0  0  0  0  0  0  0  0  0  0  0
    1.5777    2.0387   -2.3973 H   0  0  0  0  0  0  0  0  0  0  0  0
   -0.4422    2.5065    2.5221 C   0  0  0  0  0  0  0  0  0  0  0  0
    0.4583    2.2794    1.3193 C   0  0  0  0  0  0  0  0  0  0  0  0
   -0.3704    1.7122    3.2786 H   0  0  0  0  0  0  0  0  0  0  0  0
   -0.1701    3.4436    3.0305 H   0  0  0  0  0  0  0  0  0  0  0  0
   -1.5091    2.6085    2.2436 H   0  0  0  0  0  0  0  0  0  0  0  0
    0.3970    3.1491    0.6193 H   0  0  0  0  0  0  0  0  0  0  0  0
    1.5180    2.1592    1.6049 H   0  0  0  0  0  0  0  0  0  0  0  0
   -3.3352   -0.7735    1.4584 S   0  0  0  0  0  0  0  0  0  0  0  0
   -3.0652   -2.0171    0.1653 C   0  0  0  0  0  0  0  0  0  0  0  0
   -2.1512   -2.5843    0.3701 H   0  0  0  0  0  0  0  0  0  0  0  0
   -2.9732   -1.5454   -0.8205 H   0  0  0  0  0  0  0  0  0  0  0  0
   -3.9131   -2.7107    0.1447 H   0  0  0  0  0  0  0  0  0  0  0  0
  2  3  3  0  0  0  0
  1  2  1  0  0  0  0
  5  6  1  0  0  0  0
  5  7  1  0  0  0  0
  5  8  1  0  0  0  0
  4  5  1  0  0  0  0
  1  4  1  0  0  0  0
  9 10  2  0  0  0  0
 10 11  1  0  0  0  0
 11 12  1  0  0  0  0
 13 11  1  0  0  0  0
 14 11  1  0  0  0  0
 15 14  1  0  0  0  0
 16 14  1  0  0  0  0
 17 14  1  0  0  0  0
 18 17  1  0  0  0  0
 19 17  1  0  0  0  0
 20 17  1  0  0  0  0
 20 23  1  0  0  0  0
 21 20  1  0  0  0  0
 22 20  1  0  0  0  0
 23 10  1  0  0  0  0
 24 23  2  0  0  0  0
 24 25  1  0  0  0  0
 25  9  1  0  0  0  0
  1 25  1  0  0  0  0
 26 27  1  0  0  0  0
 26 28  1  0  0  0  0
 26 29  1  0  0  0  0
  9 26  1  0  0  0  0
 30 31  1  0  0  0  0
 30 32  1  0  0  0  0
 30 33  1  0  0  0  0
 24 30  1  0  0  0  0
 34 35  1  0  0  0  0
 34 36  1  0  0  0  0
 34 37  1  0  0  0  0
 34 38  1  0  0  0  0
 35 39  1  0  0  0  0
 35 40  1  0  0  0  0
 25 35  1  0  0  0  0
 42 43  1  0  0  0  0
 42 44  1  0  0  0  0
 42 45  1  0  0  0  0
 41 42  1  0  0  0  0
  1 41  1  0  0  0  0
M  END
> <PM6_ENERGY>
-347.740

> <UID>
XCVNMIJXMQPCCO-RIQPZVKYNA-M

> <FITNESS>
1.14471

> <GCODE>
2661

> <GraphENC>
2661 72_1_0,80_65_1,113_53_1,85_64_1,49306_31_1,49336_31_1,49315_32_1, 72_0_80_0_SINGLE_Xlig:0_Xlig:1,72_2_113_3_SINGLE_scaff:0_MPhosphole:1,72_1_85_0_SINGLE_Xlig:0_Xlig:1,113_0_49306_0_SINGLE_LPhospholeSubAlpha:0_SubRS:1,113_1_49336_0_SINGLE_LPhospholeSubAlpha:0_SubRS:1,113_2_49315_0_SINGLE_LPhospholeSubR:0_SubRS:1, SymmetricSet [symIds=[49306, 49336]] 

> <GraphJson>
{
  "graphId": 2661,
  "gVertices": [
    {
      "lstAPs": [
        {
          "id": 65837,
          "atomPositionNumber": 0,
          "atomPositionNumberInMol": 0,
          "apClass": {
            "rule": "Xlig",
            "subClass": 0,
            "bndTyp": "SINGLE"
          },
          "dirVec": {
            "x": -2.3339,
            "y": -0.0087,
            "z": 0.8172
          }
        },
        {
          "id": 65838,
          "atomPositionNumber": 0,
          "atomPositionNumberInMol": 0,
          "apClass": {
            "rule": "Xlig",
            "subClass": 0,
            "bndTyp": "SINGLE"
          },
          "dirVec": {
            "x": 2.336,
            "y": -5.0E-4,
            "z": 0.829
          }
        },
        {
          "id": 65839,
          "atomPositionNumber": 0,
          "atomPositionNumberInMol": 0,
          "apClass": {
            "rule": "scaff",
            "subClass": 0,
            "bndTyp": "SINGLE"
          },
          "dirVec": {
            "x": -0.0095,
            "y": 0.0046,
            "z": -1.7113
          }
        }
      ],
      "lstSymAPs": [
        {
          "symIds": [
            0,
            1
          ]
        }
      ],
      "mol": {
        "atoms": [
          {
            "elSymbol": "Pt",
            "p3d": {
              "x": -0.0098,
              "y": 0.0049,
              "z": 0.6289
            }
          },
          {
            "elSymbol": "C",
            "p3d": {
              "x": -6.0E-4,
              "y": 0.0016,
              "z": 2.5609
            }
          },
          {
            "elSymbol": "O",
            "p3d": {
              "x": 0.0025,
              "y": -0.0041,
              "z": 3.6974
            }
          },
          {
            "elSymbol": "Du",
            "p3d": {
              "x": -0.007,
              "y": 1.0013,
              "z": 0.6372
            }
          },
          {
            "elSymbol": "Du",
            "p3d": {
              "x": -0.0014,
              "y": 0.9902,
              "z": 2.5698
            }
          }
        ],
        "bonds": [
          {
            "atomIds": [
              1,
              2
            ],
            "bo": "TRIPLE"
          },
          {
            "atomIds": [
              0,
              1
            ],
            "bo": "SINGLE"
          },
          {
            "atomIds": [
              3,
              0
            ],
            "bo": "SINGLE"
          },
          {
            "atomIds": [
              4,
              1
            ],
            "bo": "SINGLE"
          }
        ]
      },
      "vertexId": 72,
      "buildingBlockId": 0,
      "buildingBlockType": "SCAFFOLD",
      "isRCV": false,
      "properties": {
        "ATTACHMENT_POINTS": "1#Xlig:0:SINGLE:-2.3339%-0.0087%0.8172,Xlig:0:SINGLE:2.3360%-0.0005%0.8290,scaff:0:SINGLE:-0.0095%0.0046%-1.7113 "
      },
      "uniquefyingPropertyKeys": [],
      "allowedMutationTypes": [
        "DELETE",
        "EXTEND",
        "CHANGEBRANCH",
        "CHANGELINK",
        "ADDLINK",
        "DELETELINK",
        "DELETECHAIN"
      ],
      "vertexType": "MolecularFragment"
    },
    {
      "lstAPs": [
        {
          "id": 65840,
          "atomPositionNumber": 0,
          "atomPositionNumberInMol": 5,
          "apClass": {
            "rule": "Xlig",
            "subClass": 1,
            "bndTyp": "SINGLE"
          },
          "dirVec": {
            "x": -0.1753,
            "y": 0.0948,
            "z": -0.4464
          }
        }
      ],
      "lstSymAPs": [],
      "mol": {
        "atoms": [
          {
            "elSymbol": "O",
            "p3d": {
              "x": -0.3534,
              "y": 2.1044,
              "z": -0.7339
            }
          },
          {
            "elSymbol": "C",
            "p3d": {
              "x": -0.5345,
              "y": 2.7646,
              "z": 0.4801
            }
          },
          {
            "elSymbol": "H",
            "p3d": {
              "x": -0.3728,
              "y": 3.8337,
              "z": 0.2724
            }
          },
          {
            "elSymbol": "H",
            "p3d": {
              "x": 0.1816,
              "y": 2.4161,
              "z": 1.2384
            }
          },
          {
            "elSymbol": "H",
            "p3d": {
              "x": -1.553,
              "y": 2.6149,
              "z": 0.8489
            }
          }
        ],
        "bonds": [
          {
            "atomIds": [
              1,
              2
            ],
            "bo": "SINGLE"
          },
          {
            "atomIds": [
              1,
              3
            ],
            "bo": "SINGLE"
          },
          {
            "atomIds": [
              1,
              4
            ],
            "bo": "SINGLE"
          },
          {
            "atomIds": [
              0,
              1
            ],
            "bo": "SINGLE"
          }
        ]
      },
      "vertexId": 80,
      "buildingBlockId": 64,
      "buildingBlockType": "FRAGMENT",
      "isRCV": false,
      "properties": {
        "ATTACHMENT_POINTS": "1#Xlig:1:SINGLE:-0.1753%0.0948%-0.4464 "
      },
      "uniquefyingPropertyKeys": [],
      "allowedMutationTypes": [
        "DELETE",
        "EXTEND",
        "CHANGEBRANCH",
        "CHANGELINK",
        "ADDLINK",
        "DELETELINK",
        "DELETECHAIN"
      ],
      "vertexType": "MolecularFragment"
    },
    {
      "lstAPs": [
        {
          "id": 65841,
          "atomPositionNumber": 0,
          "atomPositionNumberInMol": 10,
          "apClass": {
            "rule": "LPhospholeSubAlpha",
            "subClass": 0,
            "bndTyp": "SINGLE"
          },
          "dirVec": {
            "x": -0.8999,
            "y": 5.4204,
            "z": 13.4669
          }
        },
        {
          "id": 65842,
          "atomPositionNumber": 15,
          "atomPositionNumberInMol": 25,
          "apClass": {
            "rule": "LPhospholeSubAlpha",
            "subClass": 0,
            "bndTyp": "SINGLE"
          },
          "dirVec": {
            "x": 3.5623,
            "y": 2.5529,
            "z": 12.0521
          }
        },
        {
          "id": 65843,
          "atomPositionNumber": 16,
          "atomPositionNumberInMol": 26,
          "apClass": {
            "rule": "LPhospholeSubR",
            "subClass": 0,
            "bndTyp": "SINGLE"
          },
          "dirVec": {
            "x": 2.0225,
            "y": 5.5716,
            "z": 11.2441
          }
        },
        {
          "id": 65844,
          "atomPositionNumber": 16,
          "atomPositionNumberInMol": 26,
          "apClass": {
            "rule": "MPhosphole",
            "subClass": 1,
            "bndTyp": "SINGLE"
          },
          "dirVec": {
            "x": -0.1011,
            "y": 3.0668,
            "z": 10.3957
          }
        }
      ],
      "lstSymAPs": [
        {
          "symIds": [
            0,
            1
          ]
        }
      ],
      "mol": {
        "atoms": [
          {
            "elSymbol": "C",
            "p3d": {
              "x": 0.2969,
              "y": 4.5574,
              "z": 13.4258
            }
          },
          {
            "elSymbol": "C",
            "p3d": {
              "x": 0.8881,
              "y": 3.9044,
              "z": 14.4404
            }
          },
          {
            "elSymbol": "C",
            "p3d": {
              "x": 0.3791,
              "y": 3.8614,
              "z": 15.8547
            }
          },
          {
            "elSymbol": "H",
            "p3d": {
              "x": -0.4577,
              "y": 3.1638,
              "z": 15.8925
            }
          },
          {
            "elSymbol": "H",
            "p3d": {
              "x": 0.0028,
              "y": 4.8434,
              "z": 16.1153
            }
          },
          {
            "elSymbol": "C",
            "p3d": {
              "x": 1.435,
              "y": 3.4448,
              "z": 16.8579
            }
          },
          {
            "elSymbol": "H",
            "p3d": {
              "x": 2.1653,
              "y": 4.2406,
              "z": 16.9817
            }
          },
          {
            "elSymbol": "H",
            "p3d": {
              "x": 0.9586,
              "y": 3.2608,
              "z": 17.8327
            }
          },
          {
            "elSymbol": "C",
            "p3d": {
              "x": 2.1393,
              "y": 2.1908,
              "z": 16.397
            }
          },
          {
            "elSymbol": "H",
            "p3d": {
              "x": 1.413,
              "y": 1.4059,
              "z": 16.2173
            }
          },
          {
            "elSymbol": "H",
            "p3d": {
              "x": 2.8146,
              "y": 1.8507,
              "z": 17.1898
            }
          },
          {
            "elSymbol": "C",
            "p3d": {
              "x": 2.9464,
              "y": 2.4652,
              "z": 15.1475
            }
          },
          {
            "elSymbol": "H",
            "p3d": {
              "x": 3.7862,
              "y": 3.1033,
              "z": 15.3872
            }
          },
          {
            "elSymbol": "H",
            "p3d": {
              "x": 3.33,
              "y": 1.5425,
              "z": 14.7475
            }
          },
          {
            "elSymbol": "C",
            "p3d": {
              "x": 2.1189,
              "y": 3.16,
              "z": 14.0576
            }
          },
          {
            "elSymbol": "C",
            "p3d": {
              "x": 2.4181,
              "y": 3.1603,
              "z": 12.7535
            }
          },
          {
            "elSymbol": "P",
            "p3d": {
              "x": 1.1632,
              "y": 4.1331,
              "z": 11.8989
            }
          }
        ],
        "bonds": [
          {
            "atomIds": [
              0,
              1
            ],
            "bo": "DOUBLE"
          },
          {
            "atomIds": [
              1,
              2
            ],
            "bo": "SINGLE"
          },
          {
            "atomIds": [
              2,
              3
            ],
            "bo": "SINGLE"
          },
          {
            "atomIds": [
              4,
              2
            ],
            "bo": "SINGLE"
          },
          {
            "atomIds": [
              5,
              2
            ],
            "bo": "SINGLE"
          },
          {
            "atomIds": [
              6,
              5
            ],
            "bo": "SINGLE"
          },
          {
            "atomIds": [
              7,
              5
            ],
            "bo": "SINGLE"
          },
          {
            "atomIds": [
              8,
              5
            ],
            "bo": "SINGLE"
          },
          {
            "atomIds": [
              9,
              8
            ],
            "bo": "SINGLE"
          },
          {
            "atomIds": [
              10,
              8
            ],
            "bo": "SINGLE"
          },
          {
            "atomIds": [
              11,
              8
            ],
            "bo": "SINGLE"
          },
          {
            "atomIds": [
              11,
              14
            ],
            "bo": "SINGLE"
          },
          {
            "atomIds": [
              12,
              11
            ],
            "bo": "SINGLE"
          },
          {
            "atomIds": [
              13,
              11
            ],
            "bo": "SINGLE"
          },
          {
            "atomIds": [
              14,
              1
            ],
            "bo": "SINGLE"
          },
          {
            "atomIds": [
              15,
              14
            ],
            "bo": "DOUBLE"
          },
          {
            "atomIds": [
              15,
              16
            ],
            "bo": "SINGLE"
          },
          {
            "atomIds": [
              16,
              0
            ],
            "bo": "SINGLE"
          }
        ]
      },
      "vertexId": 113,
      "buildingBlockId": 52,
      "buildingBlockType": "FRAGMENT",
      "isRCV": false,
      "properties": {
        "ATTACHMENT_POINTS": "1#LPhospholeSubAlpha:0:SINGLE:-0.8999%5.4204%13.4669 16#LPhospholeSubAlpha:0:SINGLE:3.5623%2.5529%12.0521 17#LPhospholeSubR:0:SINGLE:2.0225%5.5716%11.2441,MPhosphole:1:SINGLE:-0.1011%3.0668%10.3957 "
      },
      "uniquefyingPropertyKeys": [],
      "allowedMutationTypes": [
        "DELETE",
        "EXTEND",
        "CHANGEBRANCH",
        "CHANGELINK",
        "ADDLINK",
        "DELETELINK",
        "DELETECHAIN"
      ],
      "vertexType": "MolecularFragment"
    },
    {
      "lstAPs": [
        {
          "id": 65845,
          "atomPositionNumber": 0,
          "atomPositionNumberInMol": 42,
          "apClass": {
            "rule": "Xlig",
            "subClass": 1,
            "bndTyp": "SINGLE"
          },
          "dirVec": {
            "x": -0.102,
            "y": 0.0185,
            "z": -1.0265
          }
        }
      ],
      "lstSymAPs": [],
      "mol": {
        "atoms": [
          {
            "elSymbol": "S",
            "p3d": {
              "x": -0.3267,
              "y": 2.3403,
              "z": -1.0022
            }
          },
          {
            "elSymbol": "C",
            "p3d": {
              "x": -0.626,
              "y": 2.4866,
              "z": 0.7805
            }
          },
          {
            "elSymbol": "H",
            "p3d": {
              "x": 0.1766,
              "y": 3.089,
              "z": 1.2414
            }
          },
          {
            "elSymbol": "H",
            "p3d": {
              "x": -0.651,
              "y": 1.5065,
              "z": 1.2643
            }
          },
          {
            "elSymbol": "H",
            "p3d": {
              "x": -1.5658,
              "y": 2.981,
              "z": 0.9515
            }
          }
        ],
        "bonds": [
          {
            "atomIds": [
              1,
              2
            ],
            "bo": "SINGLE"
          },
          {
            "atomIds": [
              1,
              3
            ],
            "bo": "SINGLE"
          },
          {
            "atomIds": [
              1,
              4
            ],
            "bo": "SINGLE"
          },
          {
            "atomIds": [
              0,
              1
            ],
            "bo": "SINGLE"
          }
        ]
      },
      "vertexId": 85,
      "buildingBlockId": 63,
      "buildingBlockType": "FRAGMENT",
      "isRCV": false,
      "properties": {
        "ATTACHMENT_POINTS": "1#Xlig:1:SINGLE:-0.1020%0.0185%-1.0265 "
      },
      "uniquefyingPropertyKeys": [],
      "allowedMutationTypes": [
        "DELETE",
        "EXTEND",
        "CHANGEBRANCH",
        "CHANGELINK",
        "ADDLINK",
        "DELETELINK",
        "DELETECHAIN"
      ],
      "vertexType": "MolecularFragment"
    },
    {
      "lstAPs": [
        {
          "id": 65885,
          "atomPositionNumber": 0,
          "atomPositionNumberInMol": 27,
          "apClass": {
            "rule": "SubRS",
            "subClass": 1,
            "bndTyp": "SINGLE"
          },
          "dirVec": {
            "x": 0.2865,
            "y": 0.3959,
            "z": -0.6387
          }
        }
      ],
      "lstSymAPs": [],
      "mol": {
        "atoms": [
          {
            "elSymbol": "C",
            "p3d": {
              "x": 0.3969,
              "y": -0.0496,
              "z": 0.8235
            }
          },
          {
            "elSymbol": "H",
            "p3d": {
              "x": -0.6146,
              "y": -0.163,
              "z": 1.2402
            }
          },
          {
            "elSymbol": "H",
            "p3d": {
              "x": 0.9335,
              "y": -0.9979,
              "z": 0.8998
            }
          },
          {
            "elSymbol": "H",
            "p3d": {
              "x": 0.9252,
              "y": 0.7237,
              "z": 1.3995
            }
          }
        ],
        "bonds": [
          {
            "atomIds": [
              0,
              1
            ],
            "bo": "SINGLE"
          },
          {
            "atomIds": [
              0,
              2
            ],
            "bo": "SINGLE"
          },
          {
            "atomIds": [
              0,
              3
            ],
            "bo": "SINGLE"
          }
        ]
      },
      "vertexId": 49306,
      "buildingBlockId": 30,
      "buildingBlockType": "FRAGMENT",
      "isRCV": false,
      "properties": {
        "ATTACHMENT_POINTS": "1#SubRS:1:SINGLE:0.2865%0.3959%-0.6387 "
      },
      "uniquefyingPropertyKeys": [],
      "allowedMutationTypes": [
        "DELETE",
        "EXTEND",
        "CHANGEBRANCH",
        "CHANGELINK",
        "ADDLINK",
        "DELETELINK",
        "DELETECHAIN"
      ],
      "vertexType": "MolecularFragment"
    },
    {
      "lstAPs": [
        {
          "id": 65886,
          "atomPositionNumber": 0,
          "atomPositionNumberInMol": 31,
          "apClass": {
            "rule": "SubRS",
            "subClass": 1,
            "bndTyp": "SINGLE"
          },
          "dirVec": {
            "x": 0.2865,
            "y": 0.3959,
            "z": -0.6387
          }
        }
      ],
      "lstSymAPs": [],
      "mol": {
        "atoms": [
          {
            "elSymbol": "C",
            "p3d": {
              "x": 0.3969,
              "y": -0.0496,
              "z": 0.8235
            }
          },
          {
            "elSymbol": "H",
            "p3d": {
              "x": -0.6146,
              "y": -0.163,
              "z": 1.2402
            }
          },
          {
            "elSymbol": "H",
            "p3d": {
              "x": 0.9335,
              "y": -0.9979,
              "z": 0.8998
            }
          },
          {
            "elSymbol": "H",
            "p3d": {
              "x": 0.9252,
              "y": 0.7237,
              "z": 1.3995
            }
          }
        ],
        "bonds": [
          {
            "atomIds": [
              0,
              1
            ],
            "bo": "SINGLE"
          },
          {
            "atomIds": [
              0,
              2
            ],
            "bo": "SINGLE"
          },
          {
            "atomIds": [
              0,
              3
            ],
            "bo": "SINGLE"
          }
        ]
      },
      "vertexId": 49336,
      "buildingBlockId": 30,
      "buildingBlockType": "FRAGMENT",
      "isRCV": false,
      "properties": {
        "ATTACHMENT_POINTS": "1#SubRS:1:SINGLE:0.2865%0.3959%-0.6387 "
      },
      "uniquefyingPropertyKeys": [],
      "allowedMutationTypes": [
        "DELETE",
        "EXTEND",
        "CHANGEBRANCH",
        "CHANGELINK",
        "ADDLINK",
        "DELETELINK",
        "DELETECHAIN"
      ],
      "vertexType": "MolecularFragment"
    },
    {
      "lstAPs": [
        {
          "id": 65887,
          "atomPositionNumber": 1,
          "atomPositionNumberInMol": 36,
          "apClass": {
            "rule": "SubRS",
            "subClass": 1,
            "bndTyp": "SINGLE"
          },
          "dirVec": {
            "x": 0.2985,
            "y": 0.384,
            "z": -0.6258
          }
        }
      ],
      "lstSymAPs": [],
      "mol": {
        "atoms": [
          {
            "elSymbol": "C",
            "p3d": {
              "x": -1.0244,
              "y": -0.2225,
              "z": 1.3991
            }
          },
          {
            "elSymbol": "C",
            "p3d": {
              "x": 0.3973,
              "y": -0.042,
              "z": 0.8195
            }
          },
          {
            "elSymbol": "H",
            "p3d": {
              "x": -1.5635,
              "y": -0.9908,
              "z": 0.8263
            }
          },
          {
            "elSymbol": "H",
            "p3d": {
              "x": -0.941,
              "y": -0.535,
              "z": 2.446
            }
          },
          {
            "elSymbol": "H",
            "p3d": {
              "x": -1.5586,
              "y": 0.7335,
              "z": 1.3382
            }
          },
          {
            "elSymbol": "H",
            "p3d": {
              "x": 0.9335,
              "y": 0.7221,
              "z": 1.4011
            }
          },
          {
            "elSymbol": "H",
            "p3d": {
              "x": 0.927,
              "y": -1.0102,
              "z": 0.9001
            }
          }
        ],
        "bonds": [
          {
            "atomIds": [
              0,
              1
            ],
            "bo": "SINGLE"
          },
          {
            "atomIds": [
              0,
              2
            ],
            "bo": "SINGLE"
          },
          {
            "atomIds": [
              0,
              3
            ],
            "bo": "SINGLE"
          },
          {
            "atomIds": [
              0,
              4
            ],
            "bo": "SINGLE"
          },
          {
            "atomIds": [
              1,
              5
            ],
            "bo": "SINGLE"
          },
          {
            "atomIds": [
              1,
              6
            ],
            "bo": "SINGLE"
          }
        ]
      },
      "vertexId": 49315,
      "buildingBlockId": 31,
      "buildingBlockType": "FRAGMENT",
      "isRCV": false,
      "properties": {
        "ATTACHMENT_POINTS": "2#SubRS:1:SINGLE:0.2985%0.3840%-0.6258 "
      },
      "uniquefyingPropertyKeys": [],
      "allowedMutationTypes": [
        "DELETE",
        "EXTEND",
        "CHANGEBRANCH",
        "CHANGELINK",
        "ADDLINK",
        "DELETELINK",
        "DELETECHAIN"
      ],
      "vertexType": "MolecularFragment"
    }
  ],
  "gEdges": [
    {
      "srcAPID": 65837,
      "trgAPID": 65840,
      "bondType": "SINGLE"
    },
    {
      "srcAPID": 65839,
      "trgAPID": 65844,
      "bondType": "SINGLE"
    },
    {
      "srcAPID": 65838,
      "trgAPID": 65845,
      "bondType": "SINGLE"
    },
    {
      "srcAPID": 65841,
      "trgAPID": 65885,
      "bondType": "SINGLE"
    },
    {
      "srcAPID": 65842,
      "trgAPID": 65886,
      "bondType": "SINGLE"
    },
    {
      "srcAPID": 65843,
      "trgAPID": 65887,
      "bondType": "SINGLE"
    }
  ],
  "gRings": [],
  "symVertices": [
    {
      "symIds": [
        49306,
        49336
      ]
    }
  ]
}

> <SMILES>
[Pt](C#O)(OC([H])([H])[H])([P]1(C(=C2C(C(C(C(C2=C1C([H])([H])[H])([H])[H])([H])[H])([H])[H])([H])[H])C([H])([H])[H])C(C([H])([H])[H])([H])[H])SC([H])([H])[H]

$$$$
