M00006400
  CDK     04222211013D

 62 66  0  0  0  0  0  0  0  0999 V2000
    3.3308    0.1181   -0.9045 Pt  0  0  0  0  0  0  0  0  0  0  0  0
    5.2081    0.5447   -1.0741 C   0  0  0  0  0  0  0  0  0  0  0  0
    6.3067    0.8439   -1.1804 O   0  0  0  0  0  0  0  0  0  0  0  0
    3.6830   -1.7801   -0.3756 C   0  0  0  0  0  0  0  0  0  0  0  0
    3.8824   -2.8773   -0.0717 N   0  0  0  0  0  0  0  0  0  0  0  0
    0.4880   -0.0653    0.1901 N   0  0  0  0  0  0  0  0  0  0  0  0
    0.6446   -0.6283   -2.0192 C   0  0  0  0  0  0  0  0  0  0  0  0
    1.1405   -0.9442   -3.2767 C   0  0  0  0  0  0  0  0  0  0  0  0
    2.2107   -0.8718   -3.4872 H   0  0  0  0  0  0  0  0  0  0  0  0
    0.2239   -1.3634   -4.2570 C   0  0  0  0  0  0  0  0  0  0  0  0
    0.5861   -1.6204   -5.2531 H   0  0  0  0  0  0  0  0  0  0  0  0
   -1.1397   -1.4542   -3.9695 C   0  0  0  0  0  0  0  0  0  0  0  0
   -1.8347   -1.7756   -4.7472 H   0  0  0  0  0  0  0  0  0  0  0  0
   -1.6421   -1.1386   -2.6921 C   0  0  0  0  0  0  0  0  0  0  0  0
   -2.7089   -1.2037   -2.4832 H   0  0  0  0  0  0  0  0  0  0  0  0
   -0.7406   -0.7407   -1.7209 C   0  0  0  0  0  0  0  0  0  0  0  0
   -0.9798   -0.2921   -0.2703 C   0  0  0  0  0  0  0  0  0  0  0  0
    1.3629   -0.1872   -0.8131 C   0  0  1  0  0  0  0  0  0  0  0  0
   -1.7639    1.0137   -0.3669 C   0  0  0  0  0  0  0  0  0  0  0  0
   -3.0682    1.1221    0.1335 C   0  0  0  0  0  0  0  0  0  0  0  0
   -3.5477    0.2847    0.6425 H   0  0  0  0  0  0  0  0  0  0  0  0
   -3.7918    2.3083   -0.0301 C   0  0  0  0  0  0  0  0  0  0  0  0
   -4.8013    2.3828    0.3729 H   0  0  0  0  0  0  0  0  0  0  0  0
   -3.2299    3.3896   -0.7120 C   0  0  0  0  0  0  0  0  0  0  0  0
   -3.7942    4.3128   -0.8372 H   0  0  0  0  0  0  0  0  0  0  0  0
   -1.9408    3.2768   -1.2429 C   0  0  0  0  0  0  0  0  0  0  0  0
   -1.4993    4.1103   -1.7897 H   0  0  0  0  0  0  0  0  0  0  0  0
   -1.2157    2.0954   -1.0795 C   0  0  0  0  0  0  0  0  0  0  0  0
   -0.2136    2.0221   -1.5131 H   0  0  0  0  0  0  0  0  0  0  0  0
    0.8521    0.1911    1.5708 C   0  0  0  0  0  0  0  0  0  0  0  0
    1.5021    0.5770    4.2677 C   0  0  0  0  0  0  0  0  0  0  0  0
    0.8909    1.5023    2.0992 C   0  0  0  0  0  0  0  0  0  0  0  0
    1.1817   -0.9265    2.3837 C   0  0  0  0  0  0  0  0  0  0  0  0
    1.4966   -0.7110    3.7340 C   0  0  0  0  0  0  0  0  0  0  0  0
    1.2063    1.6720    3.4578 C   0  0  0  0  0  0  0  0  0  0  0  0
    1.7490   -1.5616    4.3666 H   0  0  0  0  0  0  0  0  0  0  0  0
    1.2308    2.6766    3.8786 H   0  0  0  0  0  0  0  0  0  0  0  0
    1.7469    0.7287    5.3199 H   0  0  0  0  0  0  0  0  0  0  0  0
    0.6190    2.7162    1.2848 C   0  0  0  0  0  0  0  0  0  0  0  0
    1.0185    2.6374    0.2578 H   0  0  0  0  0  0  0  0  0  0  0  0
    1.0835    3.6189    1.7084 H   0  0  0  0  0  0  0  0  0  0  0  0
   -0.4602    2.9178    1.2099 H   0  0  0  0  0  0  0  0  0  0  0  0
    1.2033   -2.3278    1.8778 C   0  0  0  0  0  0  0  0  0  0  0  0
    0.3745   -2.9163    2.3013 H   0  0  0  0  0  0  0  0  0  0  0  0
    2.1424   -2.8414    2.1525 H   0  0  0  0  0  0  0  0  0  0  0  0
    1.1341   -2.4256    0.7864 H   0  0  0  0  0  0  0  0  0  0  0  0
   -1.5918   -1.3455    0.6346 C   0  0  0  0  0  0  0  0  0  0  0  0
   -1.9199   -1.0145    1.9618 C   0  0  0  0  0  0  0  0  0  0  0  0
   -1.7342   -0.0043    2.3346 H   0  0  0  0  0  0  0  0  0  0  0  0
   -2.4690   -1.9739    2.8138 C   0  0  0  0  0  0  0  0  0  0  0  0
   -2.7191   -1.7073    3.8403 H   0  0  0  0  0  0  0  0  0  0  0  0
   -2.6922   -3.2762    2.3543 C   0  0  0  0  0  0  0  0  0  0  0  0
   -3.1222   -4.0243    3.0193 H   0  0  0  0  0  0  0  0  0  0  0  0
   -2.3559   -3.6141    1.0413 C   0  0  0  0  0  0  0  0  0  0  0  0
   -2.5185   -4.6297    0.6806 H   0  0  0  0  0  0  0  0  0  0  0  0
   -1.8028   -2.6562    0.1852 C   0  0  0  0  0  0  0  0  0  0  0  0
   -1.5301   -2.9512   -0.8290 H   0  0  0  0  0  0  0  0  0  0  0  0
    3.0109    2.3395   -1.5105 S   0  0  0  0  0  0  0  0  0  0  0  0
    2.8524    2.1318   -3.3068 C   0  0  0  0  0  0  0  0  0  0  0  0
    1.8346    1.8329   -3.5750 H   0  0  0  0  0  0  0  0  0  0  0  0
    3.5596    1.3889   -3.6863 H   0  0  0  0  0  0  0  0  0  0  0  0
    3.0714    3.0939   -3.7869 H   0  0  0  0  0  0  0  0  0  0  0  0
  2  3  3  0  0  0  0
  1  2  1  0  0  0  0
  4  5  3  0  0  0  0
  1  4  1  0  0  0  0
  6 17  1  0  0  0  0
  7  8  1  0  0  0  0
  8  9  1  0  0  0  0
 10  8  2  0  0  0  0
 11 10  1  0  0  0  0
 12 10  1  0  0  0  0
 13 12  1  0  0  0  0
 14 12  2  0  0  0  0
 15 14  1  0  0  0  0
 16  7  2  0  0  0  0
 17 16  1  0  0  0  0
  6 18  1  0  0  0  0
  7 18  1  0  0  0  0
 14 16  1  0  0  0  0
  1 18  1  0  0  0  0
 20 19  1  0  0  0  0
 21 20  1  0  0  0  0
 22 20  2  0  0  0  0
 23 22  1  0  0  0  0
 24 22  1  0  0  0  0
 25 24  1  0  0  0  0
 26 24  2  0  0  0  0
 27 26  1  0  0  0  0
 28 19  2  0  0  0  0
 29 28  1  0  0  0  0
 26 28  1  0  0  0  0
 17 19  1  0  0  0  0
 30 33  1  0  0  0  0
 33 34  2  0  0  0  0
 31 34  1  0  0  0  0
 31 35  2  0  0  0  0
 32 35  1  0  0  0  0
 30 32  2  0  0  0  0
 34 36  1  0  0  0  0
 35 37  1  0  0  0  0
 31 38  1  0  0  0  0
 39 40  1  0  0  0  0
 39 41  1  0  0  0  0
 39 42  1  0  0  0  0
 32 39  1  0  0  0  0
 43 44  1  0  0  0  0
 43 45  1  0  0  0  0
 43 46  1  0  0  0  0
 33 43  1  0  0  0  0
  6 30  1  0  0  0  0
 48 47  1  0  0  0  0
 49 48  1  0  0  0  0
 50 48  2  0  0  0  0
 51 50  1  0  0  0  0
 52 50  1  0  0  0  0
 53 52  1  0  0  0  0
 54 52  2  0  0  0  0
 55 54  1  0  0  0  0
 56 47  2  0  0  0  0
 57 56  1  0  0  0  0
 54 56  1  0  0  0  0
 17 47  1  0  0  0  0
 59 60  1  0  0  0  0
 59 61  1  0  0  0  0
 59 62  1  0  0  0  0
 58 59  1  0  0  0  0
  1 58  1  0  0  0  0
M  END
> <PM6_ENERGY>
579.971

> <UID>
KNLNWQMDAYBDGP-SCRIVSCTNA-M

> <FITNESS>
1.14357

> <GCODE>
7231

> <GraphENC>
7231 72_1_0,81_66_1,93_15_1,85_64_1,145186_30_1,145181_38_1,145637_30_1, 72_0_81_0_SINGLE_Xlig:0_Xlig:1,72_2_93_3_SINGLE_scaff:0_MIsoindolylidene:1,72_1_85_0_SINGLE_Xlig:0_Xlig:1,93_1_145186_0_SINGLE_LIsoindolylideneSubCS:0_LIsoindolylideneSubCS:1,93_0_145181_0_SINGLE_LIsoindolylideneSubNL:0_SubArL:1,93_2_145637_0_SINGLE_LIsoindolylideneSubCS:0_LIsoindolylideneSubCS:1, SymmetricSet [symIds=[145186, 145637]] 

> <GraphJson>
{
  "graphId": 7231,
  "gVertices": [
    {
      "lstAPs": [
        {
          "id": 190731,
          "atomPositionNumber": 0,
          "atomPositionNumberInMol": 0,
          "apClass": {
            "rule": "Xlig",
            "subClass": 0,
            "bndTyp": "SINGLE"
          },
          "dirVec": {
            "x": -2.3339,
            "y": -0.0087,
            "z": 0.8172
          }
        },
        {
          "id": 190732,
          "atomPositionNumber": 0,
          "atomPositionNumberInMol": 0,
          "apClass": {
            "rule": "Xlig",
            "subClass": 0,
            "bndTyp": "SINGLE"
          },
          "dirVec": {
            "x": 2.336,
            "y": -5.0E-4,
            "z": 0.829
          }
        },
        {
          "id": 190733,
          "atomPositionNumber": 0,
          "atomPositionNumberInMol": 0,
          "apClass": {
            "rule": "scaff",
            "subClass": 0,
            "bndTyp": "SINGLE"
          },
          "dirVec": {
            "x": -0.0095,
            "y": 0.0046,
            "z": -1.7113
          }
        }
      ],
      "lstSymAPs": [
        {
          "symIds": [
            0,
            1
          ]
        }
      ],
      "mol": {
        "atoms": [
          {
            "elSymbol": "Pt",
            "p3d": {
              "x": -0.0098,
              "y": 0.0049,
              "z": 0.6289
            }
          },
          {
            "elSymbol": "C",
            "p3d": {
              "x": -6.0E-4,
              "y": 0.0016,
              "z": 2.5609
            }
          },
          {
            "elSymbol": "O",
            "p3d": {
              "x": 0.0025,
              "y": -0.0041,
              "z": 3.6974
            }
          },
          {
            "elSymbol": "Du",
            "p3d": {
              "x": -0.007,
              "y": 1.0013,
              "z": 0.6372
            }
          },
          {
            "elSymbol": "Du",
            "p3d": {
              "x": -0.0014,
              "y": 0.9902,
              "z": 2.5698
            }
          }
        ],
        "bonds": [
          {
            "atomIds": [
              1,
              2
            ],
            "bo": "TRIPLE"
          },
          {
            "atomIds": [
              0,
              1
            ],
            "bo": "SINGLE"
          },
          {
            "atomIds": [
              3,
              0
            ],
            "bo": "SINGLE"
          },
          {
            "atomIds": [
              4,
              1
            ],
            "bo": "SINGLE"
          }
        ]
      },
      "vertexId": 72,
      "buildingBlockId": 0,
      "buildingBlockType": "SCAFFOLD",
      "isRCV": false,
      "properties": {
        "ATTACHMENT_POINTS": "1#Xlig:0:SINGLE:-2.3339%-0.0087%0.8172,Xlig:0:SINGLE:2.3360%-0.0005%0.8290,scaff:0:SINGLE:-0.0095%0.0046%-1.7113 "
      },
      "uniquefyingPropertyKeys": [],
      "allowedMutationTypes": [
        "DELETE",
        "EXTEND",
        "CHANGEBRANCH",
        "CHANGELINK",
        "ADDLINK",
        "DELETELINK",
        "DELETECHAIN"
      ],
      "vertexType": "MolecularFragment"
    },
    {
      "lstAPs": [
        {
          "id": 190734,
          "atomPositionNumber": 0,
          "atomPositionNumberInMol": 5,
          "apClass": {
            "rule": "Xlig",
            "subClass": 1,
            "bndTyp": "SINGLE"
          },
          "dirVec": {
            "x": 0.0192,
            "y": -0.0048,
            "z": -0.5645
          }
        }
      ],
      "lstSymAPs": [],
      "mol": {
        "atoms": [
          {
            "elSymbol": "C",
            "p3d": {
              "x": -1.967,
              "y": -0.0075,
              "z": -0.4937
            }
          },
          {
            "elSymbol": "N",
            "p3d": {
              "x": -3.1263,
              "y": -0.0054,
              "z": -0.4354
            }
          },
          {
            "elSymbol": "Du",
            "p3d": {
              "x": -1.9744,
              "y": 0.9926,
              "z": -0.5036
            }
          }
        ],
        "bonds": [
          {
            "atomIds": [
              0,
              1
            ],
            "bo": "TRIPLE"
          },
          {
            "atomIds": [
              2,
              0
            ],
            "bo": "SINGLE"
          }
        ]
      },
      "vertexId": 81,
      "buildingBlockId": 65,
      "buildingBlockType": "FRAGMENT",
      "isRCV": false,
      "properties": {
        "ATTACHMENT_POINTS": "1#Xlig:1:SINGLE:0.0192%-0.0048%-0.5645 "
      },
      "uniquefyingPropertyKeys": [],
      "allowedMutationTypes": [
        "DELETE",
        "EXTEND",
        "CHANGEBRANCH",
        "CHANGELINK",
        "ADDLINK",
        "DELETELINK",
        "DELETECHAIN"
      ],
      "vertexType": "MolecularFragment"
    },
    {
      "lstAPs": [
        {
          "id": 190735,
          "atomPositionNumber": 0,
          "atomPositionNumberInMol": 8,
          "apClass": {
            "rule": "LIsoindolylideneSubNL",
            "subClass": 0,
            "bndTyp": "SINGLE"
          },
          "dirVec": {
            "x": 8.2611,
            "y": 13.2699,
            "z": 19.2517
          }
        },
        {
          "id": 190736,
          "atomPositionNumber": 11,
          "atomPositionNumberInMol": 19,
          "apClass": {
            "rule": "LIsoindolylideneSubCS",
            "subClass": 0,
            "bndTyp": "SINGLE"
          },
          "dirVec": {
            "x": 8.8004,
            "y": 11.8294,
            "z": 16.2112
          }
        },
        {
          "id": 190737,
          "atomPositionNumber": 11,
          "atomPositionNumberInMol": 19,
          "apClass": {
            "rule": "LIsoindolylideneSubCS",
            "subClass": 0,
            "bndTyp": "SINGLE"
          },
          "dirVec": {
            "x": 9.9911,
            "y": 10.7246,
            "z": 18.2628
          }
        },
        {
          "id": 190738,
          "atomPositionNumber": 12,
          "atomPositionNumberInMol": 20,
          "apClass": {
            "rule": "MIsoindolylidene",
            "subClass": 1,
            "bndTyp": "SINGLE"
          },
          "dirVec": {
            "x": 10.5893,
            "y": 15.7982,
            "z": 19.2952
          }
        }
      ],
      "lstSymAPs": [
        {
          "symIds": [
            1,
            2
          ]
        }
      ],
      "mol": {
        "atoms": [
          {
            "elSymbol": "N",
            "p3d": {
              "x": 9.4489,
              "y": 13.1799,
              "z": 18.2942
            }
          },
          {
            "elSymbol": "C",
            "p3d": {
              "x": 11.4201,
              "y": 13.7017,
              "z": 17.3025
            }
          },
          {
            "elSymbol": "C",
            "p3d": {
              "x": 12.5951,
              "y": 14.339,
              "z": 16.9164
            }
          },
          {
            "elSymbol": "H",
            "p3d": {
              "x": 12.8733,
              "y": 15.3,
              "z": 17.3622
            }
          },
          {
            "elSymbol": "C",
            "p3d": {
              "x": 13.4411,
              "y": 13.7204,
              "z": 15.9914
            }
          },
          {
            "elSymbol": "H",
            "p3d": {
              "x": 14.3384,
              "y": 14.2201,
              "z": 15.6587
            }
          },
          {
            "elSymbol": "C",
            "p3d": {
              "x": 13.0993,
              "y": 12.4808,
              "z": 15.4917
            }
          },
          {
            "elSymbol": "H",
            "p3d": {
              "x": 13.7585,
              "y": 11.989,
              "z": 14.7813
            }
          },
          {
            "elSymbol": "C",
            "p3d": {
              "x": 11.9512,
              "y": 11.8214,
              "z": 15.8884
            }
          },
          {
            "elSymbol": "H",
            "p3d": {
              "x": 11.7213,
              "y": 10.8277,
              "z": 15.5012
            }
          },
          {
            "elSymbol": "C",
            "p3d": {
              "x": 11.1202,
              "y": 12.434,
              "z": 16.8015
            }
          },
          {
            "elSymbol": "C",
            "p3d": {
              "x": 9.7825,
              "y": 11.9664,
              "z": 17.3844
            }
          },
          {
            "elSymbol": "C",
            "p3d": {
              "x": 10.4002,
              "y": 14.1128,
              "z": 18.2438
            }
          }
        ],
        "bonds": [
          {
            "atomIds": [
              0,
              11
            ],
            "bo": "SINGLE"
          },
          {
            "atomIds": [
              1,
              2
            ],
            "bo": "SINGLE"
          },
          {
            "atomIds": [
              2,
              3
            ],
            "bo": "SINGLE"
          },
          {
            "atomIds": [
              4,
              2
            ],
            "bo": "DOUBLE"
          },
          {
            "atomIds": [
              5,
              4
            ],
            "bo": "SINGLE"
          },
          {
            "atomIds": [
              6,
              4
            ],
            "bo": "SINGLE"
          },
          {
            "atomIds": [
              7,
              6
            ],
            "bo": "SINGLE"
          },
          {
            "atomIds": [
              8,
              6
            ],
            "bo": "DOUBLE"
          },
          {
            "atomIds": [
              9,
              8
            ],
            "bo": "SINGLE"
          },
          {
            "atomIds": [
              10,
              1
            ],
            "bo": "DOUBLE"
          },
          {
            "atomIds": [
              11,
              10
            ],
            "bo": "SINGLE"
          },
          {
            "atomIds": [
              0,
              12
            ],
            "bo": "SINGLE"
          },
          {
            "atomIds": [
              1,
              12
            ],
            "bo": "SINGLE"
          },
          {
            "atomIds": [
              8,
              10
            ],
            "bo": "SINGLE"
          }
        ]
      },
      "vertexId": 93,
      "buildingBlockId": 14,
      "buildingBlockType": "FRAGMENT",
      "isRCV": false,
      "properties": {
        "ATTACHMENT_POINTS": "1#LIsoindolylideneSubNL:0:SINGLE:8.2611%13.2699%19.2517 12#LIsoindolylideneSubCS:0:SINGLE:8.8004%11.8294%16.2112,LIsoindolylideneSubCS:0:SINGLE:9.9911%10.7246%18.2628 13#MIsoindolylidene:1:SINGLE:10.5893%15.7982%19.2952 "
      },
      "uniquefyingPropertyKeys": [],
      "allowedMutationTypes": [
        "DELETE",
        "EXTEND",
        "CHANGEBRANCH",
        "CHANGELINK",
        "ADDLINK",
        "DELETELINK",
        "DELETECHAIN"
      ],
      "vertexType": "MolecularFragment"
    },
    {
      "lstAPs": [
        {
          "id": 190739,
          "atomPositionNumber": 0,
          "atomPositionNumberInMol": 60,
          "apClass": {
            "rule": "Xlig",
            "subClass": 1,
            "bndTyp": "SINGLE"
          },
          "dirVec": {
            "x": -0.102,
            "y": 0.0185,
            "z": -1.0265
          }
        }
      ],
      "lstSymAPs": [],
      "mol": {
        "atoms": [
          {
            "elSymbol": "S",
            "p3d": {
              "x": -0.3267,
              "y": 2.3403,
              "z": -1.0022
            }
          },
          {
            "elSymbol": "C",
            "p3d": {
              "x": -0.626,
              "y": 2.4866,
              "z": 0.7805
            }
          },
          {
            "elSymbol": "H",
            "p3d": {
              "x": 0.1766,
              "y": 3.089,
              "z": 1.2414
            }
          },
          {
            "elSymbol": "H",
            "p3d": {
              "x": -0.651,
              "y": 1.5065,
              "z": 1.2643
            }
          },
          {
            "elSymbol": "H",
            "p3d": {
              "x": -1.5658,
              "y": 2.981,
              "z": 0.9515
            }
          }
        ],
        "bonds": [
          {
            "atomIds": [
              1,
              2
            ],
            "bo": "SINGLE"
          },
          {
            "atomIds": [
              1,
              3
            ],
            "bo": "SINGLE"
          },
          {
            "atomIds": [
              1,
              4
            ],
            "bo": "SINGLE"
          },
          {
            "atomIds": [
              0,
              1
            ],
            "bo": "SINGLE"
          }
        ]
      },
      "vertexId": 85,
      "buildingBlockId": 63,
      "buildingBlockType": "FRAGMENT",
      "isRCV": false,
      "properties": {
        "ATTACHMENT_POINTS": "1#Xlig:1:SINGLE:-0.1020%0.0185%-1.0265 "
      },
      "uniquefyingPropertyKeys": [],
      "allowedMutationTypes": [
        "DELETE",
        "EXTEND",
        "CHANGEBRANCH",
        "CHANGELINK",
        "ADDLINK",
        "DELETELINK",
        "DELETECHAIN"
      ],
      "vertexType": "MolecularFragment"
    },
    {
      "lstAPs": [
        {
          "id": 190776,
          "atomPositionNumber": 0,
          "atomPositionNumberInMol": 21,
          "apClass": {
            "rule": "LIsoindolylideneSubCS",
            "subClass": 1,
            "bndTyp": "SINGLE"
          },
          "dirVec": {
            "x": 5.5795,
            "y": 5.9633,
            "z": -0.239
          }
        }
      ],
      "lstSymAPs": [],
      "mol": {
        "atoms": [
          {
            "elSymbol": "C",
            "p3d": {
              "x": 6.4615,
              "y": 7.1721,
              "z": 0.1839
            }
          },
          {
            "elSymbol": "C",
            "p3d": {
              "x": 7.081,
              "y": 7.1629,
              "z": 1.4436
            }
          },
          {
            "elSymbol": "H",
            "p3d": {
              "x": 7.0505,
              "y": 6.276,
              "z": 2.048
            }
          },
          {
            "elSymbol": "C",
            "p3d": {
              "x": 7.7838,
              "y": 8.284,
              "z": 1.8843
            }
          },
          {
            "elSymbol": "H",
            "p3d": {
              "x": 8.252,
              "y": 8.2646,
              "z": 2.8494
            }
          },
          {
            "elSymbol": "C",
            "p3d": {
              "x": 7.8546,
              "y": 9.4183,
              "z": 1.0991
            }
          },
          {
            "elSymbol": "H",
            "p3d": {
              "x": 8.4264,
              "y": 10.2812,
              "z": 1.4367
            }
          },
          {
            "elSymbol": "C",
            "p3d": {
              "x": 7.1986,
              "y": 9.4546,
              "z": -0.132
            }
          },
          {
            "elSymbol": "H",
            "p3d": {
              "x": 7.2285,
              "y": 10.3561,
              "z": -0.7414
            }
          },
          {
            "elSymbol": "C",
            "p3d": {
              "x": 6.4815,
              "y": 8.3462,
              "z": -0.5635
            }
          },
          {
            "elSymbol": "H",
            "p3d": {
              "x": 5.9344,
              "y": 8.3796,
              "z": -1.5229
            }
          }
        ],
        "bonds": [
          {
            "atomIds": [
              1,
              0
            ],
            "bo": "SINGLE"
          },
          {
            "atomIds": [
              2,
              1
            ],
            "bo": "SINGLE"
          },
          {
            "atomIds": [
              3,
              1
            ],
            "bo": "DOUBLE"
          },
          {
            "atomIds": [
              4,
              3
            ],
            "bo": "SINGLE"
          },
          {
            "atomIds": [
              5,
              3
            ],
            "bo": "SINGLE"
          },
          {
            "atomIds": [
              6,
              5
            ],
            "bo": "SINGLE"
          },
          {
            "atomIds": [
              7,
              5
            ],
            "bo": "DOUBLE"
          },
          {
            "atomIds": [
              8,
              7
            ],
            "bo": "SINGLE"
          },
          {
            "atomIds": [
              9,
              0
            ],
            "bo": "DOUBLE"
          },
          {
            "atomIds": [
              10,
              9
            ],
            "bo": "SINGLE"
          },
          {
            "atomIds": [
              7,
              9
            ],
            "bo": "SINGLE"
          }
        ]
      },
      "vertexId": 145186,
      "buildingBlockId": 29,
      "buildingBlockType": "FRAGMENT",
      "isRCV": false,
      "properties": {
        "ATTACHMENT_POINTS": "1#LIsoindolylideneSubCS:1:SINGLE:5.5795%5.9633%-0.2390 "
      },
      "uniquefyingPropertyKeys": [],
      "allowedMutationTypes": [
        "DELETE",
        "EXTEND",
        "CHANGEBRANCH",
        "CHANGELINK",
        "ADDLINK",
        "DELETELINK",
        "DELETECHAIN"
      ],
      "vertexType": "MolecularFragment"
    },
    {
      "lstAPs": [
        {
          "id": 190777,
          "atomPositionNumber": 0,
          "atomPositionNumberInMol": 32,
          "apClass": {
            "rule": "SubArL",
            "subClass": 1,
            "bndTyp": "SINGLE"
          },
          "dirVec": {
            "x": 0.2957,
            "y": 0.3816,
            "z": -0.6358
          }
        }
      ],
      "lstSymAPs": [],
      "mol": {
        "atoms": [
          {
            "elSymbol": "C",
            "p3d": {
              "x": 1.7088,
              "y": 0.551,
              "z": -1.2192
            }
          },
          {
            "elSymbol": "C",
            "p3d": {
              "x": 4.2535,
              "y": 0.8673,
              "z": -2.2548
            }
          },
          {
            "elSymbol": "C",
            "p3d": {
              "x": 2.3329,
              "y": 1.7979,
              "z": -1.1377
            }
          },
          {
            "elSymbol": "C",
            "p3d": {
              "x": 2.3315,
              "y": -0.5114,
              "z": -1.8171
            }
          },
          {
            "elSymbol": "C",
            "p3d": {
              "x": 3.6062,
              "y": -0.3595,
              "z": -2.3299
            }
          },
          {
            "elSymbol": "C",
            "p3d": {
              "x": 3.6205,
              "y": 1.9526,
              "z": -1.657
            }
          },
          {
            "elSymbol": "H",
            "p3d": {
              "x": 4.116,
              "y": -1.2062,
              "z": -2.8187
            }
          },
          {
            "elSymbol": "H",
            "p3d": {
              "x": 4.1193,
              "y": 2.9144,
              "z": -1.5883
            }
          },
          {
            "elSymbol": "H",
            "p3d": {
              "x": 5.2485,
              "y": 0.9961,
              "z": -2.6688
            }
          },
          {
            "elSymbol": "C",
            "p3d": {
              "x": 1.6389,
              "y": 2.9732,
              "z": -0.4581
            }
          },
          {
            "elSymbol": "H",
            "p3d": {
              "x": 2.3787,
              "y": 3.6649,
              "z": -0.0604
            }
          },
          {
            "elSymbol": "H",
            "p3d": {
              "x": 1.0049,
              "y": 2.601,
              "z": 0.3676
            }
          },
          {
            "elSymbol": "H",
            "p3d": {
              "x": 1.0013,
              "y": 3.4961,
              "z": -1.199
            }
          },
          {
            "elSymbol": "C",
            "p3d": {
              "x": 1.6397,
              "y": -1.8757,
              "z": -1.9164
            }
          },
          {
            "elSymbol": "H",
            "p3d": {
              "x": 2.3747,
              "y": -2.6603,
              "z": -1.9613
            }
          },
          {
            "elSymbol": "H",
            "p3d": {
              "x": 1.0044,
              "y": -1.9015,
              "z": -2.8054
            }
          },
          {
            "elSymbol": "H",
            "p3d": {
              "x": 1.0057,
              "y": -2.0243,
              "z": -1.0149
            }
          }
        ],
        "bonds": [
          {
            "atomIds": [
              0,
              3
            ],
            "bo": "SINGLE"
          },
          {
            "atomIds": [
              3,
              4
            ],
            "bo": "DOUBLE"
          },
          {
            "atomIds": [
              1,
              4
            ],
            "bo": "SINGLE"
          },
          {
            "atomIds": [
              1,
              5
            ],
            "bo": "DOUBLE"
          },
          {
            "atomIds": [
              2,
              5
            ],
            "bo": "SINGLE"
          },
          {
            "atomIds": [
              0,
              2
            ],
            "bo": "DOUBLE"
          },
          {
            "atomIds": [
              4,
              6
            ],
            "bo": "SINGLE"
          },
          {
            "atomIds": [
              5,
              7
            ],
            "bo": "SINGLE"
          },
          {
            "atomIds": [
              1,
              8
            ],
            "bo": "SINGLE"
          },
          {
            "atomIds": [
              9,
              10
            ],
            "bo": "SINGLE"
          },
          {
            "atomIds": [
              9,
              11
            ],
            "bo": "SINGLE"
          },
          {
            "atomIds": [
              9,
              12
            ],
            "bo": "SINGLE"
          },
          {
            "atomIds": [
              2,
              9
            ],
            "bo": "SINGLE"
          },
          {
            "atomIds": [
              13,
              14
            ],
            "bo": "SINGLE"
          },
          {
            "atomIds": [
              13,
              15
            ],
            "bo": "SINGLE"
          },
          {
            "atomIds": [
              13,
              16
            ],
            "bo": "SINGLE"
          },
          {
            "atomIds": [
              3,
              13
            ],
            "bo": "SINGLE"
          }
        ]
      },
      "vertexId": 145181,
      "buildingBlockId": 37,
      "buildingBlockType": "FRAGMENT",
      "isRCV": false,
      "properties": {
        "ATTACHMENT_POINTS": "1#SubArL:1:SINGLE:0.2957%0.3816%-0.6358 "
      },
      "uniquefyingPropertyKeys": [],
      "allowedMutationTypes": [
        "DELETE",
        "EXTEND",
        "CHANGEBRANCH",
        "CHANGELINK",
        "ADDLINK",
        "DELETELINK",
        "DELETECHAIN"
      ],
      "vertexType": "MolecularFragment"
    },
    {
      "lstAPs": [
        {
          "id": 190778,
          "atomPositionNumber": 0,
          "atomPositionNumberInMol": 49,
          "apClass": {
            "rule": "LIsoindolylideneSubCS",
            "subClass": 1,
            "bndTyp": "SINGLE"
          },
          "dirVec": {
            "x": 5.5795,
            "y": 5.9633,
            "z": -0.239
          }
        }
      ],
      "lstSymAPs": [],
      "mol": {
        "atoms": [
          {
            "elSymbol": "C",
            "p3d": {
              "x": 6.4615,
              "y": 7.1721,
              "z": 0.1839
            }
          },
          {
            "elSymbol": "C",
            "p3d": {
              "x": 7.081,
              "y": 7.1629,
              "z": 1.4436
            }
          },
          {
            "elSymbol": "H",
            "p3d": {
              "x": 7.0505,
              "y": 6.276,
              "z": 2.048
            }
          },
          {
            "elSymbol": "C",
            "p3d": {
              "x": 7.7838,
              "y": 8.284,
              "z": 1.8843
            }
          },
          {
            "elSymbol": "H",
            "p3d": {
              "x": 8.252,
              "y": 8.2646,
              "z": 2.8494
            }
          },
          {
            "elSymbol": "C",
            "p3d": {
              "x": 7.8546,
              "y": 9.4183,
              "z": 1.0991
            }
          },
          {
            "elSymbol": "H",
            "p3d": {
              "x": 8.4264,
              "y": 10.2812,
              "z": 1.4367
            }
          },
          {
            "elSymbol": "C",
            "p3d": {
              "x": 7.1986,
              "y": 9.4546,
              "z": -0.132
            }
          },
          {
            "elSymbol": "H",
            "p3d": {
              "x": 7.2285,
              "y": 10.3561,
              "z": -0.7414
            }
          },
          {
            "elSymbol": "C",
            "p3d": {
              "x": 6.4815,
              "y": 8.3462,
              "z": -0.5635
            }
          },
          {
            "elSymbol": "H",
            "p3d": {
              "x": 5.9344,
              "y": 8.3796,
              "z": -1.5229
            }
          }
        ],
        "bonds": [
          {
            "atomIds": [
              1,
              0
            ],
            "bo": "SINGLE"
          },
          {
            "atomIds": [
              2,
              1
            ],
            "bo": "SINGLE"
          },
          {
            "atomIds": [
              3,
              1
            ],
            "bo": "DOUBLE"
          },
          {
            "atomIds": [
              4,
              3
            ],
            "bo": "SINGLE"
          },
          {
            "atomIds": [
              5,
              3
            ],
            "bo": "SINGLE"
          },
          {
            "atomIds": [
              6,
              5
            ],
            "bo": "SINGLE"
          },
          {
            "atomIds": [
              7,
              5
            ],
            "bo": "DOUBLE"
          },
          {
            "atomIds": [
              8,
              7
            ],
            "bo": "SINGLE"
          },
          {
            "atomIds": [
              9,
              0
            ],
            "bo": "DOUBLE"
          },
          {
            "atomIds": [
              10,
              9
            ],
            "bo": "SINGLE"
          },
          {
            "atomIds": [
              7,
              9
            ],
            "bo": "SINGLE"
          }
        ]
      },
      "vertexId": 145637,
      "buildingBlockId": 29,
      "buildingBlockType": "FRAGMENT",
      "isRCV": false,
      "properties": {
        "ATTACHMENT_POINTS": "1#LIsoindolylideneSubCS:1:SINGLE:5.5795%5.9633%-0.2390 "
      },
      "uniquefyingPropertyKeys": [],
      "allowedMutationTypes": [
        "DELETE",
        "EXTEND",
        "CHANGEBRANCH",
        "CHANGELINK",
        "ADDLINK",
        "DELETELINK",
        "DELETECHAIN"
      ],
      "vertexType": "MolecularFragment"
    }
  ],
  "gEdges": [
    {
      "srcAPID": 190731,
      "trgAPID": 190734,
      "bondType": "SINGLE"
    },
    {
      "srcAPID": 190733,
      "trgAPID": 190738,
      "bondType": "SINGLE"
    },
    {
      "srcAPID": 190732,
      "trgAPID": 190739,
      "bondType": "SINGLE"
    },
    {
      "srcAPID": 190736,
      "trgAPID": 190776,
      "bondType": "SINGLE"
    },
    {
      "srcAPID": 190735,
      "trgAPID": 190777,
      "bondType": "SINGLE"
    },
    {
      "srcAPID": 190737,
      "trgAPID": 190778,
      "bondType": "SINGLE"
    }
  ],
  "gRings": [],
  "symVertices": [
    {
      "symIds": [
        145186,
        145637
      ]
    }
  ]
}

> <SMILES>
[Pt](C#O)(C#N)([C]1N(C(C2=C1C([H])=C([H])C([H])=C2[H])(C=3C([H])=C([H])C([H])=C([H])C3[H])C=4C([H])=C([H])C([H])=C([H])C4[H])C=5C(=C(C(=C(C5C([H])([H])[H])[H])[H])[H])C([H])([H])[H])SC([H])([H])[H]

$$$$
