M00005932
  CDK     04222210503D

 38 39  0  0  0  0  0  0  0  0999 V2000
   -1.8531   -0.8973    1.2170 Pt  0  0  0  0  0  0  0  0  0  0  0  0
   -3.7944   -1.0619    1.4940 C   0  0  0  0  0  0  0  0  0  0  0  0
   -4.9216   -1.1515    1.6475 O   0  0  0  0  0  0  0  0  0  0  0  0
   -1.6571    0.8109    0.1094 O   0  0  0  0  0  0  0  0  0  0  0  0
   -2.3039    1.9040    0.7324 C   0  0  0  0  0  0  0  0  0  0  0  0
   -1.9580    2.7975    0.1925 H   0  0  0  0  0  0  0  0  0  0  0  0
   -2.0162    1.9652    1.7895 H   0  0  0  0  0  0  0  0  0  0  0  0
   -3.3893    1.7902    0.6214 H   0  0  0  0  0  0  0  0  0  0  0  0
    0.8436    0.6597    3.0408 C   0  0  0  0  0  0  0  0  0  0  0  0
   -0.1869    0.4417    3.3893 H   0  0  0  0  0  0  0  0  0  0  0  0
    1.1560    1.6509    3.4288 H   0  0  0  0  0  0  0  0  0  0  0  0
    1.8457   -0.4375    3.4003 C   0  0  0  0  0  0  0  0  0  0  0  0
    2.8683   -0.1148    3.1047 H   0  0  0  0  0  0  0  0  0  0  0  0
    1.8806   -0.5772    4.4996 H   0  0  0  0  0  0  0  0  0  0  0  0
    1.5113   -1.7642    2.7158 C   0  0  0  0  0  0  0  0  0  0  0  0
    2.3291   -2.5061    2.8251 H   0  0  0  0  0  0  0  0  0  0  0  0
    0.5670   -2.2206    3.0784 H   0  0  0  0  0  0  0  0  0  0  0  0
    0.8437    0.9054    1.6028 O   0  0  0  0  0  0  0  0  0  0  0  0
    1.4613   -1.6035    1.2730 O   0  0  0  0  0  0  0  0  0  0  0  0
    0.3231   -0.4643    0.7710 P   0  0  0  0  0  0  0  0  0  0  0  0
    0.7916   -0.3030   -1.0372 C   0  0  0  0  0  0  0  0  0  0  0  0
    0.0588   -0.9098   -3.3582 C   0  0  0  0  0  0  0  0  0  0  0  0
    1.2726    1.2765   -2.9247 C   0  0  0  0  0  0  0  0  0  0  0  0
    0.2310    0.5534   -3.7907 C   0  0  0  0  0  0  0  0  0  0  0  0
    0.9216    1.1731   -1.4314 C   0  0  0  0  0  0  0  0  0  0  0  0
   -0.2920   -1.0118   -1.8637 C   0  0  0  0  0  0  0  0  0  0  0  0
    0.9862   -1.4763   -3.5675 H   0  0  0  0  0  0  0  0  0  0  0  0
    2.2768    0.8494   -3.1081 H   0  0  0  0  0  0  0  0  0  0  0  0
   -0.7418    1.0785   -3.7168 H   0  0  0  0  0  0  0  0  0  0  0  0
   -0.0374    1.7114   -1.2444 H   0  0  0  0  0  0  0  0  0  0  0  0
   -1.2904   -0.5385   -1.6966 H   0  0  0  0  0  0  0  0  0  0  0  0
    1.7792   -0.8192   -1.1836 H   0  0  0  0  0  0  0  0  0  0  0  0
   -0.7360   -1.3896   -3.9600 H   0  0  0  0  0  0  0  0  0  0  0  0
    1.3336    2.3409   -3.2193 H   0  0  0  0  0  0  0  0  0  0  0  0
    0.5264    0.6000   -4.8550 H   0  0  0  0  0  0  0  0  0  0  0  0
    1.6939    1.6902   -0.8287 H   0  0  0  0  0  0  0  0  0  0  0  0
   -0.3944   -2.0803   -1.5852 H   0  0  0  0  0  0  0  0  0  0  0  0
   -1.9287   -2.8715    2.4379 Cl  0  0  0  0  0  0  0  0  0  0  0  0
  2  3  3  0  0  0  0
  1  2  1  0  0  0  0
  5  6  1  0  0  0  0
  5  7  1  0  0  0  0
  5  8  1  0  0  0  0
  4  5  1  0  0  0  0
  1  4  1  0  0  0  0
  9 10  1  0  0  0  0
 11  9  1  0  0  0  0
 12  9  1  0  0  0  0
 13 12  1  0  0  0  0
 14 12  1  0  0  0  0
 15 12  1  0  0  0  0
 16 15  1  0  0  0  0
 17 15  1  0  0  0  0
 18  9  1  0  0  0  0
 18 20  1  0  0  0  0
 19 15  1  0  0  0  0
 19 20  1  0  0  0  0
  1 20  1  0  0  0  0
 21 32  1  0  0  0  0
 21 25  1  0  0  0  0
 21 26  1  0  0  0  0
 22 27  1  0  0  0  0
 22 33  1  0  0  0  0
 22 24  1  0  0  0  0
 22 26  1  0  0  0  0
 23 28  1  0  0  0  0
 23 34  1  0  0  0  0
 23 25  1  0  0  0  0
 23 24  1  0  0  0  0
 24 29  1  0  0  0  0
 24 35  1  0  0  0  0
 25 30  1  0  0  0  0
 25 36  1  0  0  0  0
 26 31  1  0  0  0  0
 26 37  1  0  0  0  0
 20 21  1  0  0  0  0
  1 38  1  0  0  0  0
M  END
> <PM6_ENERGY>
-870.747

> <UID>
OCIGRKSPYPCGET-QLJNQJGENA-M

> <FITNESS>
1.14113

> <GCODE>
6753

> <GraphENC>
6753 72_1_0,80_65_1,119_59_1,88_67_1,134421_35_1, 72_0_80_0_SINGLE_Xlig:0_Xlig:1,72_2_119_1_SINGLE_scaff:0_MPhosphonite:1,72_1_88_0_SINGLE_Xlig:0_Xlig:1,119_0_134421_0_SINGLE_LPhosphoniteSubR:0_SubRM:1, 

> <GraphJson>
{
  "graphId": 6753,
  "gVertices": [
    {
      "lstAPs": [
        {
          "id": 176180,
          "atomPositionNumber": 0,
          "atomPositionNumberInMol": 0,
          "apClass": {
            "rule": "Xlig",
            "subClass": 0,
            "bndTyp": "SINGLE"
          },
          "dirVec": {
            "x": -2.3339,
            "y": -0.0087,
            "z": 0.8172
          }
        },
        {
          "id": 176181,
          "atomPositionNumber": 0,
          "atomPositionNumberInMol": 0,
          "apClass": {
            "rule": "Xlig",
            "subClass": 0,
            "bndTyp": "SINGLE"
          },
          "dirVec": {
            "x": 2.336,
            "y": -5.0E-4,
            "z": 0.829
          }
        },
        {
          "id": 176182,
          "atomPositionNumber": 0,
          "atomPositionNumberInMol": 0,
          "apClass": {
            "rule": "scaff",
            "subClass": 0,
            "bndTyp": "SINGLE"
          },
          "dirVec": {
            "x": -0.0095,
            "y": 0.0046,
            "z": -1.7113
          }
        }
      ],
      "lstSymAPs": [
        {
          "symIds": [
            0,
            1
          ]
        }
      ],
      "mol": {
        "atoms": [
          {
            "elSymbol": "Pt",
            "p3d": {
              "x": -0.0098,
              "y": 0.0049,
              "z": 0.6289
            }
          },
          {
            "elSymbol": "C",
            "p3d": {
              "x": -6.0E-4,
              "y": 0.0016,
              "z": 2.5609
            }
          },
          {
            "elSymbol": "O",
            "p3d": {
              "x": 0.0025,
              "y": -0.0041,
              "z": 3.6974
            }
          },
          {
            "elSymbol": "Du",
            "p3d": {
              "x": -0.007,
              "y": 1.0013,
              "z": 0.6372
            }
          },
          {
            "elSymbol": "Du",
            "p3d": {
              "x": -0.0014,
              "y": 0.9902,
              "z": 2.5698
            }
          }
        ],
        "bonds": [
          {
            "atomIds": [
              1,
              2
            ],
            "bo": "TRIPLE"
          },
          {
            "atomIds": [
              0,
              1
            ],
            "bo": "SINGLE"
          },
          {
            "atomIds": [
              3,
              0
            ],
            "bo": "SINGLE"
          },
          {
            "atomIds": [
              4,
              1
            ],
            "bo": "SINGLE"
          }
        ]
      },
      "vertexId": 72,
      "buildingBlockId": 0,
      "buildingBlockType": "SCAFFOLD",
      "isRCV": false,
      "properties": {
        "ATTACHMENT_POINTS": "1#Xlig:0:SINGLE:-2.3339%-0.0087%0.8172,Xlig:0:SINGLE:2.3360%-0.0005%0.8290,scaff:0:SINGLE:-0.0095%0.0046%-1.7113 "
      },
      "uniquefyingPropertyKeys": [],
      "allowedMutationTypes": [
        "DELETE",
        "EXTEND",
        "CHANGEBRANCH",
        "CHANGELINK",
        "ADDLINK",
        "DELETELINK",
        "DELETECHAIN"
      ],
      "vertexType": "MolecularFragment"
    },
    {
      "lstAPs": [
        {
          "id": 176183,
          "atomPositionNumber": 0,
          "atomPositionNumberInMol": 5,
          "apClass": {
            "rule": "Xlig",
            "subClass": 1,
            "bndTyp": "SINGLE"
          },
          "dirVec": {
            "x": -0.1753,
            "y": 0.0948,
            "z": -0.4464
          }
        }
      ],
      "lstSymAPs": [],
      "mol": {
        "atoms": [
          {
            "elSymbol": "O",
            "p3d": {
              "x": -0.3534,
              "y": 2.1044,
              "z": -0.7339
            }
          },
          {
            "elSymbol": "C",
            "p3d": {
              "x": -0.5345,
              "y": 2.7646,
              "z": 0.4801
            }
          },
          {
            "elSymbol": "H",
            "p3d": {
              "x": -0.3728,
              "y": 3.8337,
              "z": 0.2724
            }
          },
          {
            "elSymbol": "H",
            "p3d": {
              "x": 0.1816,
              "y": 2.4161,
              "z": 1.2384
            }
          },
          {
            "elSymbol": "H",
            "p3d": {
              "x": -1.553,
              "y": 2.6149,
              "z": 0.8489
            }
          }
        ],
        "bonds": [
          {
            "atomIds": [
              1,
              2
            ],
            "bo": "SINGLE"
          },
          {
            "atomIds": [
              1,
              3
            ],
            "bo": "SINGLE"
          },
          {
            "atomIds": [
              1,
              4
            ],
            "bo": "SINGLE"
          },
          {
            "atomIds": [
              0,
              1
            ],
            "bo": "SINGLE"
          }
        ]
      },
      "vertexId": 80,
      "buildingBlockId": 64,
      "buildingBlockType": "FRAGMENT",
      "isRCV": false,
      "properties": {
        "ATTACHMENT_POINTS": "1#Xlig:1:SINGLE:-0.1753%0.0948%-0.4464 "
      },
      "uniquefyingPropertyKeys": [],
      "allowedMutationTypes": [
        "DELETE",
        "EXTEND",
        "CHANGEBRANCH",
        "CHANGELINK",
        "ADDLINK",
        "DELETELINK",
        "DELETECHAIN"
      ],
      "vertexType": "MolecularFragment"
    },
    {
      "lstAPs": [
        {
          "id": 176184,
          "atomPositionNumber": 11,
          "atomPositionNumberInMol": 21,
          "apClass": {
            "rule": "LPhosphoniteSubR",
            "subClass": 0,
            "bndTyp": "SINGLE"
          },
          "dirVec": {
            "x": 2.7128,
            "y": 1.5224,
            "z": 3.4841
          }
        },
        {
          "id": 176185,
          "atomPositionNumber": 11,
          "atomPositionNumberInMol": 21,
          "apClass": {
            "rule": "MPhosphonite",
            "subClass": 1,
            "bndTyp": "SINGLE"
          },
          "dirVec": {
            "x": 2.5476,
            "y": 4.788,
            "z": 4.3969
          }
        }
      ],
      "lstSymAPs": [],
      "mol": {
        "atoms": [
          {
            "elSymbol": "C",
            "p3d": {
              "x": 0.7537,
              "y": 3.745,
              "z": 0.8399
            }
          },
          {
            "elSymbol": "H",
            "p3d": {
              "x": 0.5695,
              "y": 4.7704,
              "z": 1.1332
            }
          },
          {
            "elSymbol": "H",
            "p3d": {
              "x": -0.148,
              "y": 3.3512,
              "z": 0.3374
            }
          },
          {
            "elSymbol": "C",
            "p3d": {
              "x": 1.9094,
              "y": 3.7216,
              "z": -0.1375
            }
          },
          {
            "elSymbol": "H",
            "p3d": {
              "x": 2.0131,
              "y": 2.7201,
              "z": -0.556
            }
          },
          {
            "elSymbol": "H",
            "p3d": {
              "x": 1.7132,
              "y": 4.3969,
              "z": -0.9763
            }
          },
          {
            "elSymbol": "C",
            "p3d": {
              "x": 3.1937,
              "y": 4.0991,
              "z": 0.5062
            }
          },
          {
            "elSymbol": "H",
            "p3d": {
              "x": 4.0091,
              "y": 4.059,
              "z": -0.2475
            }
          },
          {
            "elSymbol": "H",
            "p3d": {
              "x": 3.1376,
              "y": 5.1254,
              "z": 0.85
            }
          },
          {
            "elSymbol": "O",
            "p3d": {
              "x": 1.0555,
              "y": 2.9275,
              "z": 2.0087
            }
          },
          {
            "elSymbol": "O",
            "p3d": {
              "x": 3.5155,
              "y": 3.2295,
              "z": 1.6213
            }
          },
          {
            "elSymbol": "P",
            "p3d": {
              "x": 2.4376,
              "y": 3.1406,
              "z": 2.7957
            }
          }
        ],
        "bonds": [
          {
            "atomIds": [
              0,
              1
            ],
            "bo": "SINGLE"
          },
          {
            "atomIds": [
              2,
              0
            ],
            "bo": "SINGLE"
          },
          {
            "atomIds": [
              3,
              0
            ],
            "bo": "SINGLE"
          },
          {
            "atomIds": [
              4,
              3
            ],
            "bo": "SINGLE"
          },
          {
            "atomIds": [
              5,
              3
            ],
            "bo": "SINGLE"
          },
          {
            "atomIds": [
              6,
              3
            ],
            "bo": "SINGLE"
          },
          {
            "atomIds": [
              7,
              6
            ],
            "bo": "SINGLE"
          },
          {
            "atomIds": [
              8,
              6
            ],
            "bo": "SINGLE"
          },
          {
            "atomIds": [
              9,
              0
            ],
            "bo": "SINGLE"
          },
          {
            "atomIds": [
              9,
              11
            ],
            "bo": "SINGLE"
          },
          {
            "atomIds": [
              10,
              6
            ],
            "bo": "SINGLE"
          },
          {
            "atomIds": [
              10,
              11
            ],
            "bo": "SINGLE"
          }
        ]
      },
      "vertexId": 119,
      "buildingBlockId": 58,
      "buildingBlockType": "FRAGMENT",
      "isRCV": false,
      "properties": {
        "ATTACHMENT_POINTS": "12#LPhosphoniteSubR:0:SINGLE:2.7128%1.5224%3.4841,MPhosphonite:1:SINGLE:2.5476%4.7880%4.3969 "
      },
      "uniquefyingPropertyKeys": [],
      "allowedMutationTypes": [
        "DELETE",
        "EXTEND",
        "CHANGEBRANCH",
        "CHANGELINK",
        "ADDLINK",
        "DELETELINK",
        "DELETECHAIN"
      ],
      "vertexType": "MolecularFragment"
    },
    {
      "lstAPs": [
        {
          "id": 176186,
          "atomPositionNumber": 0,
          "atomPositionNumberInMol": 39,
          "apClass": {
            "rule": "Xlig",
            "subClass": 1,
            "bndTyp": "SINGLE"
          },
          "dirVec": {
            "x": -0.0053,
            "y": -0.0027,
            "z": 0.63
          }
        }
      ],
      "lstSymAPs": [],
      "mol": {
        "atoms": [
          {
            "elSymbol": "Cl",
            "p3d": {
              "x": 2.3243,
              "y": -0.0063,
              "z": 0.8189
            }
          }
        ],
        "bonds": []
      },
      "vertexId": 88,
      "buildingBlockId": 66,
      "buildingBlockType": "FRAGMENT",
      "isRCV": false,
      "properties": {
        "ATTACHMENT_POINTS": "1#Xlig:1:SINGLE:-0.0053%-0.0027%0.6300 "
      },
      "uniquefyingPropertyKeys": [],
      "allowedMutationTypes": [
        "DELETE",
        "EXTEND",
        "CHANGEBRANCH",
        "CHANGELINK",
        "ADDLINK",
        "DELETELINK",
        "DELETECHAIN"
      ],
      "vertexType": "MolecularFragment"
    },
    {
      "lstAPs": [
        {
          "id": 176211,
          "atomPositionNumber": 0,
          "atomPositionNumberInMol": 22,
          "apClass": {
            "rule": "SubRM",
            "subClass": 1,
            "bndTyp": "SINGLE"
          },
          "dirVec": {
            "x": 0.2917,
            "y": 0.3929,
            "z": -0.6365
          }
        }
      ],
      "lstSymAPs": [],
      "mol": {
        "atoms": [
          {
            "elSymbol": "C",
            "p3d": {
              "x": 1.7002,
              "y": 0.56,
              "z": -1.2045
            }
          },
          {
            "elSymbol": "C",
            "p3d": {
              "x": 3.564,
              "y": -0.7339,
              "z": -2.2652
            }
          },
          {
            "elSymbol": "C",
            "p3d": {
              "x": 2.9237,
              "y": 1.5034,
              "z": -3.1926
            }
          },
          {
            "elSymbol": "C",
            "p3d": {
              "x": 3.4145,
              "y": 0.0994,
              "z": -3.5498
            }
          },
          {
            "elSymbol": "C",
            "p3d": {
              "x": 1.5576,
              "y": 1.3879,
              "z": -2.5024
            }
          },
          {
            "elSymbol": "C",
            "p3d": {
              "x": 2.203,
              "y": -0.843,
              "z": -1.5702
            }
          },
          {
            "elSymbol": "H",
            "p3d": {
              "x": 4.3384,
              "y": -0.3241,
              "z": -1.6106
            }
          },
          {
            "elSymbol": "H",
            "p3d": {
              "x": 3.6361,
              "y": 2.0524,
              "z": -2.5991
            }
          },
          {
            "elSymbol": "H",
            "p3d": {
              "x": 2.7828,
              "y": -0.3911,
              "z": -4.2916
            }
          },
          {
            "elSymbol": "H",
            "p3d": {
              "x": 0.7737,
              "y": 0.9833,
              "z": -3.15
            }
          },
          {
            "elSymbol": "H",
            "p3d": {
              "x": 1.4815,
              "y": -1.3988,
              "z": -2.1783
            }
          },
          {
            "elSymbol": "H",
            "p3d": {
              "x": 2.3445,
              "y": 1.0609,
              "z": -0.4835
            }
          },
          {
            "elSymbol": "H",
            "p3d": {
              "x": 3.8429,
              "y": -1.7623,
              "z": -2.577
            }
          },
          {
            "elSymbol": "H",
            "p3d": {
              "x": 2.7428,
              "y": 2.0124,
              "z": -4.146
            }
          },
          {
            "elSymbol": "H",
            "p3d": {
              "x": 4.4291,
              "y": 0.2183,
              "z": -3.9628
            }
          },
          {
            "elSymbol": "H",
            "p3d": {
              "x": 1.2819,
              "y": 2.4034,
              "z": -2.1821
            }
          },
          {
            "elSymbol": "H",
            "p3d": {
              "x": 2.3734,
              "y": -1.3662,
              "z": -0.6149
            }
          }
        ],
        "bonds": [
          {
            "atomIds": [
              0,
              11
            ],
            "bo": "SINGLE"
          },
          {
            "atomIds": [
              0,
              4
            ],
            "bo": "SINGLE"
          },
          {
            "atomIds": [
              0,
              5
            ],
            "bo": "SINGLE"
          },
          {
            "atomIds": [
              1,
              6
            ],
            "bo": "SINGLE"
          },
          {
            "atomIds": [
              1,
              12
            ],
            "bo": "SINGLE"
          },
          {
            "atomIds": [
              1,
              3
            ],
            "bo": "SINGLE"
          },
          {
            "atomIds": [
              1,
              5
            ],
            "bo": "SINGLE"
          },
          {
            "atomIds": [
              2,
              7
            ],
            "bo": "SINGLE"
          },
          {
            "atomIds": [
              2,
              13
            ],
            "bo": "SINGLE"
          },
          {
            "atomIds": [
              2,
              4
            ],
            "bo": "SINGLE"
          },
          {
            "atomIds": [
              2,
              3
            ],
            "bo": "SINGLE"
          },
          {
            "atomIds": [
              3,
              8
            ],
            "bo": "SINGLE"
          },
          {
            "atomIds": [
              3,
              14
            ],
            "bo": "SINGLE"
          },
          {
            "atomIds": [
              4,
              9
            ],
            "bo": "SINGLE"
          },
          {
            "atomIds": [
              4,
              15
            ],
            "bo": "SINGLE"
          },
          {
            "atomIds": [
              5,
              10
            ],
            "bo": "SINGLE"
          },
          {
            "atomIds": [
              5,
              16
            ],
            "bo": "SINGLE"
          }
        ]
      },
      "vertexId": 134421,
      "buildingBlockId": 34,
      "buildingBlockType": "FRAGMENT",
      "isRCV": false,
      "properties": {
        "ATTACHMENT_POINTS": "1#SubRM:1:SINGLE:0.2917%0.3929%-0.6365 "
      },
      "uniquefyingPropertyKeys": [],
      "allowedMutationTypes": [
        "DELETE",
        "EXTEND",
        "CHANGEBRANCH",
        "CHANGELINK",
        "ADDLINK",
        "DELETELINK",
        "DELETECHAIN"
      ],
      "vertexType": "MolecularFragment"
    }
  ],
  "gEdges": [
    {
      "srcAPID": 176180,
      "trgAPID": 176183,
      "bondType": "SINGLE"
    },
    {
      "srcAPID": 176182,
      "trgAPID": 176185,
      "bondType": "SINGLE"
    },
    {
      "srcAPID": 176181,
      "trgAPID": 176186,
      "bondType": "SINGLE"
    },
    {
      "srcAPID": 176184,
      "trgAPID": 176211,
      "bondType": "SINGLE"
    }
  ],
  "gRings": [],
  "symVertices": []
}

> <SMILES>
[Pt](C#O)(OC([H])([H])[H])([P]1(OC([H])([H])C([H])([H])C([H])([H])O1)C2([H])C(C([H])([H])C(C([H])([H])C2([H])[H])([H])[H])([H])[H])Cl

$$$$
