M00000829
  CDK     04222208563D

 61 63  0  0  0  0  0  0  0  0999 V2000
    2.4420    0.2386   -0.2692 Pt  0  0  0  0  0  0  0  0  0  0  0  0
    4.3626    0.3437   -0.6397 C   0  0  0  0  0  0  0  0  0  0  0  0
    5.4836    0.4171   -0.8425 O   0  0  0  0  0  0  0  0  0  0  0  0
    2.2599   -0.2059   -2.5691 S   0  0  0  0  0  0  0  0  0  0  0  0
    2.7305   -1.9577   -2.4870 C   0  0  0  0  0  0  0  0  0  0  0  0
    2.2528   -2.4975   -3.3121 H   0  0  0  0  0  0  0  0  0  0  0  0
    2.4017   -2.4066   -1.5345 H   0  0  0  0  0  0  0  0  0  0  0  0
    3.8142   -2.0716   -2.5856 H   0  0  0  0  0  0  0  0  0  0  0  0
    0.1908    0.1694    0.1342 P   0  0  0  0  0  0  0  0  0  0  0  0
   -0.3302    0.6268    1.7223 N   0  0  0  0  0  0  0  0  0  0  0  0
   -1.1859   -0.1914    2.6229 C   0  0  0  0  0  0  0  0  0  0  0  0
   -0.6233   -1.0680    3.0134 H   0  0  0  0  0  0  0  0  0  0  0  0
   -2.0834   -0.5726    2.0892 H   0  0  0  0  0  0  0  0  0  0  0  0
   -1.5913    0.7516    3.7769 C   0  0  0  0  0  0  0  0  0  0  0  0
   -2.6858    0.7799    3.9039 H   0  0  0  0  0  0  0  0  0  0  0  0
   -1.1712    0.3945    4.7337 H   0  0  0  0  0  0  0  0  0  0  0  0
   -1.0381    2.1478    3.4335 C   0  0  0  0  0  0  0  0  0  0  0  0
   -0.6123    2.6417    4.3227 H   0  0  0  0  0  0  0  0  0  0  0  0
   -1.8436    2.8048    3.0620 H   0  0  0  0  0  0  0  0  0  0  0  0
    0.0351    1.9272    2.3516 C   0  0  0  0  0  0  0  0  0  0  0  0
    0.0468    2.7529    1.6004 H   0  0  0  0  0  0  0  0  0  0  0  0
    1.0517    1.8689    2.8099 H   0  0  0  0  0  0  0  0  0  0  0  0
   -0.5449   -1.5594   -0.1466 C   0  0  0  0  0  0  0  0  0  0  0  0
   -1.4844   -3.2121   -1.7933 C   0  0  0  0  0  0  0  0  0  0  0  0
   -0.0206   -4.0115    0.1129 C   0  0  0  0  0  0  0  0  0  0  0  0
   -0.4529   -4.2535   -1.3394 C   0  0  0  0  0  0  0  0  0  0  0  0
    0.5078   -2.5803    0.3077 C   0  0  0  0  0  0  0  0  0  0  0  0
   -0.9532   -1.7800   -1.6078 C   0  0  0  0  0  0  0  0  0  0  0  0
   -2.4260   -3.3439   -1.2275 H   0  0  0  0  0  0  0  0  0  0  0  0
   -0.8739   -4.1945    0.7934 H   0  0  0  0  0  0  0  0  0  0  0  0
    0.4318   -4.2167   -2.0051 H   0  0  0  0  0  0  0  0  0  0  0  0
    1.4565   -2.4656   -0.2802 H   0  0  0  0  0  0  0  0  0  0  0  0
   -0.0953   -1.6266   -2.3003 H   0  0  0  0  0  0  0  0  0  0  0  0
   -1.4615   -1.6673    0.4889 H   0  0  0  0  0  0  0  0  0  0  0  0
   -1.7415   -3.3761   -2.8571 H   0  0  0  0  0  0  0  0  0  0  0  0
    0.7604   -4.7406    0.4005 H   0  0  0  0  0  0  0  0  0  0  0  0
   -0.8720   -5.2717   -1.4445 H   0  0  0  0  0  0  0  0  0  0  0  0
    0.7822   -2.4395    1.3730 H   0  0  0  0  0  0  0  0  0  0  0  0
   -1.7361   -1.0628   -1.9239 H   0  0  0  0  0  0  0  0  0  0  0  0
   -0.5583    1.4225   -1.0870 C   0  0  0  0  0  0  0  0  0  0  0  0
   -2.5610    2.7730   -1.7798 C   0  0  0  0  0  0  0  0  0  0  0  0
   -0.2310    3.7477   -1.9906 C   0  0  0  0  0  0  0  0  0  0  0  0
   -1.7133    4.0520   -1.7337 C   0  0  0  0  0  0  0  0  0  0  0  0
    0.3015    2.6929   -1.0066 C   0  0  0  0  0  0  0  0  0  0  0  0
   -2.0325    1.7140   -0.7958 C   0  0  0  0  0  0  0  0  0  0  0  0
   -2.5600    2.3628   -2.8082 H   0  0  0  0  0  0  0  0  0  0  0  0
   -0.0938    3.3905   -3.0302 H   0  0  0  0  0  0  0  0  0  0  0  0
   -1.8297    4.5439   -0.7491 H   0  0  0  0  0  0  0  0  0  0  0  0
    0.2884    3.1254    0.0226 H   0  0  0  0  0  0  0  0  0  0  0  0
   -2.1718    2.0871    0.2408 H   0  0  0  0  0  0  0  0  0  0  0  0
   -0.4615    0.9913   -2.1201 H   0  0  0  0  0  0  0  0  0  0  0  0
   -3.6151    3.0099   -1.5447 H   0  0  0  0  0  0  0  0  0  0  0  0
    0.3671    4.6743   -1.9067 H   0  0  0  0  0  0  0  0  0  0  0  0
   -2.0838    4.7761   -2.4833 H   0  0  0  0  0  0  0  0  0  0  0  0
    1.3702    2.4769   -1.2445 H   0  0  0  0  0  0  0  0  0  0  0  0
   -2.6507    0.7993   -0.8815 H   0  0  0  0  0  0  0  0  0  0  0  0
    3.2419    0.7443    1.8705 S   0  0  0  0  0  0  0  0  0  0  0  0
    2.9852   -0.8706    2.6562 C   0  0  0  0  0  0  0  0  0  0  0  0
    3.7723   -1.0307    3.4028 H   0  0  0  0  0  0  0  0  0  0  0  0
    3.0376   -1.6776    1.9187 H   0  0  0  0  0  0  0  0  0  0  0  0
    2.0151   -0.8965    3.1626 H   0  0  0  0  0  0  0  0  0  0  0  0
  2  3  3  0  0  0  0
  1  2  1  0  0  0  0
  5  6  1  0  0  0  0
  5  7  1  0  0  0  0
  5  8  1  0  0  0  0
  4  5  1  0  0  0  0
  1  4  1  0  0  0  0
  1  9  1  0  0  0  0
 11 10  1  0  0  0  0
 12 11  1  0  0  0  0
 13 11  1  0  0  0  0
 14 11  1  0  0  0  0
 15 14  1  0  0  0  0
 16 14  1  0  0  0  0
 17 14  1  0  0  0  0
 18 17  1  0  0  0  0
 19 17  1  0  0  0  0
 20 10  1  0  0  0  0
 21 20  1  0  0  0  0
 22 20  1  0  0  0  0
 17 20  1  0  0  0  0
  9 10  1  0  0  0  0
 23 34  1  0  0  0  0
 23 27  1  0  0  0  0
 23 28  1  0  0  0  0
 24 29  1  0  0  0  0
 24 35  1  0  0  0  0
 24 26  1  0  0  0  0
 24 28  1  0  0  0  0
 25 30  1  0  0  0  0
 25 36  1  0  0  0  0
 25 27  1  0  0  0  0
 25 26  1  0  0  0  0
 26 31  1  0  0  0  0
 26 37  1  0  0  0  0
 27 32  1  0  0  0  0
 27 38  1  0  0  0  0
 28 33  1  0  0  0  0
 28 39  1  0  0  0  0
  9 23  1  0  0  0  0
 40 51  1  0  0  0  0
 40 44  1  0  0  0  0
 40 45  1  0  0  0  0
 41 46  1  0  0  0  0
 41 52  1  0  0  0  0
 41 43  1  0  0  0  0
 41 45  1  0  0  0  0
 42 47  1  0  0  0  0
 42 53  1  0  0  0  0
 42 44  1  0  0  0  0
 42 43  1  0  0  0  0
 43 48  1  0  0  0  0
 43 54  1  0  0  0  0
 44 49  1  0  0  0  0
 44 55  1  0  0  0  0
 45 50  1  0  0  0  0
 45 56  1  0  0  0  0
  9 40  1  0  0  0  0
 58 59  1  0  0  0  0
 58 60  1  0  0  0  0
 58 61  1  0  0  0  0
 57 58  1  0  0  0  0
  1 57  1  0  0  0  0
M  END
> <PM6_ENERGY>
-351.212

> <UID>
BBZAACYTLCZKCH-VLHJLEHLNA-L

> <FITNESS>
1.14156

> <GCODE>
1402

> <GraphENC>
1402 72_1_0,79_64_1,101_4_1,85_64_1,23403_7_1,23467_35_1,23415_35_1, 72_0_79_0_SINGLE_Xlig:0_Xlig:1,72_2_101_3_SINGLE_scaff:0_MMonoAminoPhosphine:1,72_1_85_0_SINGLE_Xlig:0_Xlig:1,101_0_23403_0_SINGLE_LMonoAminoPhosphineN:0_LAminoPhosphineCycloN:1,101_2_23467_0_SINGLE_LMonoAminoPhosphineSubR:0_SubRM:1,101_1_23415_0_SINGLE_LMonoAminoPhosphineSubR:0_SubRM:1, SymmetricSet [symIds=[23467, 23415]] 

> <GraphJson>
{
  "graphId": 1402,
  "gVertices": [
    {
      "lstAPs": [
        {
          "id": 32221,
          "atomPositionNumber": 0,
          "atomPositionNumberInMol": 0,
          "apClass": {
            "rule": "Xlig",
            "subClass": 0,
            "bndTyp": "SINGLE"
          },
          "dirVec": {
            "x": -2.3339,
            "y": -0.0087,
            "z": 0.8172
          }
        },
        {
          "id": 32222,
          "atomPositionNumber": 0,
          "atomPositionNumberInMol": 0,
          "apClass": {
            "rule": "Xlig",
            "subClass": 0,
            "bndTyp": "SINGLE"
          },
          "dirVec": {
            "x": 2.336,
            "y": -5.0E-4,
            "z": 0.829
          }
        },
        {
          "id": 32223,
          "atomPositionNumber": 0,
          "atomPositionNumberInMol": 0,
          "apClass": {
            "rule": "scaff",
            "subClass": 0,
            "bndTyp": "SINGLE"
          },
          "dirVec": {
            "x": -0.0095,
            "y": 0.0046,
            "z": -1.7113
          }
        }
      ],
      "lstSymAPs": [
        {
          "symIds": [
            0,
            1
          ]
        }
      ],
      "mol": {
        "atoms": [
          {
            "elSymbol": "Pt",
            "p3d": {
              "x": -0.0098,
              "y": 0.0049,
              "z": 0.6289
            }
          },
          {
            "elSymbol": "C",
            "p3d": {
              "x": -6.0E-4,
              "y": 0.0016,
              "z": 2.5609
            }
          },
          {
            "elSymbol": "O",
            "p3d": {
              "x": 0.0025,
              "y": -0.0041,
              "z": 3.6974
            }
          },
          {
            "elSymbol": "Du",
            "p3d": {
              "x": -0.007,
              "y": 1.0013,
              "z": 0.6372
            }
          },
          {
            "elSymbol": "Du",
            "p3d": {
              "x": -0.0014,
              "y": 0.9902,
              "z": 2.5698
            }
          }
        ],
        "bonds": [
          {
            "atomIds": [
              1,
              2
            ],
            "bo": "TRIPLE"
          },
          {
            "atomIds": [
              0,
              1
            ],
            "bo": "SINGLE"
          },
          {
            "atomIds": [
              3,
              0
            ],
            "bo": "SINGLE"
          },
          {
            "atomIds": [
              4,
              1
            ],
            "bo": "SINGLE"
          }
        ]
      },
      "vertexId": 72,
      "buildingBlockId": 0,
      "buildingBlockType": "SCAFFOLD",
      "isRCV": false,
      "properties": {
        "ATTACHMENT_POINTS": "1#Xlig:0:SINGLE:-2.3339%-0.0087%0.8172,Xlig:0:SINGLE:2.3360%-0.0005%0.8290,scaff:0:SINGLE:-0.0095%0.0046%-1.7113 "
      },
      "uniquefyingPropertyKeys": [],
      "allowedMutationTypes": [
        "DELETE",
        "EXTEND",
        "CHANGEBRANCH",
        "CHANGELINK",
        "ADDLINK",
        "DELETELINK",
        "DELETECHAIN"
      ],
      "vertexType": "MolecularFragment"
    },
    {
      "lstAPs": [
        {
          "id": 32224,
          "atomPositionNumber": 0,
          "atomPositionNumberInMol": 5,
          "apClass": {
            "rule": "Xlig",
            "subClass": 1,
            "bndTyp": "SINGLE"
          },
          "dirVec": {
            "x": -0.102,
            "y": 0.0185,
            "z": -1.0265
          }
        }
      ],
      "lstSymAPs": [],
      "mol": {
        "atoms": [
          {
            "elSymbol": "S",
            "p3d": {
              "x": -0.3267,
              "y": 2.3403,
              "z": -1.0022
            }
          },
          {
            "elSymbol": "C",
            "p3d": {
              "x": -0.626,
              "y": 2.4866,
              "z": 0.7805
            }
          },
          {
            "elSymbol": "H",
            "p3d": {
              "x": 0.1766,
              "y": 3.089,
              "z": 1.2414
            }
          },
          {
            "elSymbol": "H",
            "p3d": {
              "x": -0.651,
              "y": 1.5065,
              "z": 1.2643
            }
          },
          {
            "elSymbol": "H",
            "p3d": {
              "x": -1.5658,
              "y": 2.981,
              "z": 0.9515
            }
          }
        ],
        "bonds": [
          {
            "atomIds": [
              1,
              2
            ],
            "bo": "SINGLE"
          },
          {
            "atomIds": [
              1,
              3
            ],
            "bo": "SINGLE"
          },
          {
            "atomIds": [
              1,
              4
            ],
            "bo": "SINGLE"
          },
          {
            "atomIds": [
              0,
              1
            ],
            "bo": "SINGLE"
          }
        ]
      },
      "vertexId": 79,
      "buildingBlockId": 63,
      "buildingBlockType": "FRAGMENT",
      "isRCV": false,
      "properties": {
        "ATTACHMENT_POINTS": "1#Xlig:1:SINGLE:-0.1020%0.0185%-1.0265 "
      },
      "uniquefyingPropertyKeys": [],
      "allowedMutationTypes": [
        "DELETE",
        "EXTEND",
        "CHANGEBRANCH",
        "CHANGELINK",
        "ADDLINK",
        "DELETELINK",
        "DELETECHAIN"
      ],
      "vertexType": "MolecularFragment"
    },
    {
      "lstAPs": [
        {
          "id": 32225,
          "atomPositionNumber": 0,
          "atomPositionNumberInMol": 10,
          "apClass": {
            "rule": "LMonoAminoPhosphineN",
            "subClass": 0,
            "bndTyp": "SINGLE"
          },
          "dirVec": {
            "x": 3.1471,
            "y": 10.0719,
            "z": 6.8843
          }
        },
        {
          "id": 32226,
          "atomPositionNumber": 0,
          "atomPositionNumberInMol": 10,
          "apClass": {
            "rule": "LMonoAminoPhosphineSubR",
            "subClass": 0,
            "bndTyp": "SINGLE"
          },
          "dirVec": {
            "x": 0.3842,
            "y": 9.4902,
            "z": 6.7015
          }
        },
        {
          "id": 32227,
          "atomPositionNumber": 0,
          "atomPositionNumberInMol": 10,
          "apClass": {
            "rule": "LMonoAminoPhosphineSubR",
            "subClass": 0,
            "bndTyp": "SINGLE"
          },
          "dirVec": {
            "x": 2.2197,
            "y": 7.8057,
            "z": 8.2724
          }
        },
        {
          "id": 32228,
          "atomPositionNumber": 0,
          "atomPositionNumberInMol": 10,
          "apClass": {
            "rule": "MMonoAminoPhosphine",
            "subClass": 1,
            "bndTyp": "SINGLE"
          },
          "dirVec": {
            "x": 2.6023,
            "y": 7.6121,
            "z": 4.8117
          }
        }
      ],
      "lstSymAPs": [
        {
          "symIds": [
            1,
            2
          ]
        }
      ],
      "mol": {
        "atoms": [
          {
            "elSymbol": "P",
            "p3d": {
              "x": 2.1045,
              "y": 8.7901,
              "z": 6.7495
            }
          }
        ],
        "bonds": []
      },
      "vertexId": 101,
      "buildingBlockId": 3,
      "buildingBlockType": "FRAGMENT",
      "isRCV": false,
      "properties": {
        "ATTACHMENT_POINTS": "1#LMonoAminoPhosphineN:0:SINGLE:3.1471%10.0719%6.8843,LMonoAminoPhosphineSubR:0:SINGLE:0.3842%9.4902%6.7015,LMonoAminoPhosphineSubR:0:SINGLE:2.2197%7.8057%8.2724,MMonoAminoPhosphine:1:SINGLE:2.6023%7.6121%4.8117 "
      },
      "uniquefyingPropertyKeys": [],
      "allowedMutationTypes": [
        "DELETE",
        "EXTEND",
        "CHANGEBRANCH",
        "CHANGELINK",
        "ADDLINK",
        "DELETELINK",
        "DELETECHAIN"
      ],
      "vertexType": "MolecularFragment"
    },
    {
      "lstAPs": [
        {
          "id": 32229,
          "atomPositionNumber": 0,
          "atomPositionNumberInMol": 58,
          "apClass": {
            "rule": "Xlig",
            "subClass": 1,
            "bndTyp": "SINGLE"
          },
          "dirVec": {
            "x": -0.102,
            "y": 0.0185,
            "z": -1.0265
          }
        }
      ],
      "lstSymAPs": [],
      "mol": {
        "atoms": [
          {
            "elSymbol": "S",
            "p3d": {
              "x": -0.3267,
              "y": 2.3403,
              "z": -1.0022
            }
          },
          {
            "elSymbol": "C",
            "p3d": {
              "x": -0.626,
              "y": 2.4866,
              "z": 0.7805
            }
          },
          {
            "elSymbol": "H",
            "p3d": {
              "x": 0.1766,
              "y": 3.089,
              "z": 1.2414
            }
          },
          {
            "elSymbol": "H",
            "p3d": {
              "x": -0.651,
              "y": 1.5065,
              "z": 1.2643
            }
          },
          {
            "elSymbol": "H",
            "p3d": {
              "x": -1.5658,
              "y": 2.981,
              "z": 0.9515
            }
          }
        ],
        "bonds": [
          {
            "atomIds": [
              1,
              2
            ],
            "bo": "SINGLE"
          },
          {
            "atomIds": [
              1,
              3
            ],
            "bo": "SINGLE"
          },
          {
            "atomIds": [
              1,
              4
            ],
            "bo": "SINGLE"
          },
          {
            "atomIds": [
              0,
              1
            ],
            "bo": "SINGLE"
          }
        ]
      },
      "vertexId": 85,
      "buildingBlockId": 63,
      "buildingBlockType": "FRAGMENT",
      "isRCV": false,
      "properties": {
        "ATTACHMENT_POINTS": "1#Xlig:1:SINGLE:-0.1020%0.0185%-1.0265 "
      },
      "uniquefyingPropertyKeys": [],
      "allowedMutationTypes": [
        "DELETE",
        "EXTEND",
        "CHANGEBRANCH",
        "CHANGELINK",
        "ADDLINK",
        "DELETELINK",
        "DELETECHAIN"
      ],
      "vertexType": "MolecularFragment"
    },
    {
      "lstAPs": [
        {
          "id": 32266,
          "atomPositionNumber": 0,
          "atomPositionNumberInMol": 11,
          "apClass": {
            "rule": "LAminoPhosphineCycloN",
            "subClass": 1,
            "bndTyp": "SINGLE"
          },
          "dirVec": {
            "x": -1.0842,
            "y": 2.354,
            "z": 2.6746
          }
        }
      ],
      "lstSymAPs": [],
      "mol": {
        "atoms": [
          {
            "elSymbol": "N",
            "p3d": {
              "x": -2.0922,
              "y": 2.0012,
              "z": 1.4169
            }
          },
          {
            "elSymbol": "C",
            "p3d": {
              "x": -3.1902,
              "y": 2.8736,
              "z": 0.9976
            }
          },
          {
            "elSymbol": "H",
            "p3d": {
              "x": -2.8134,
              "y": 3.8695,
              "z": 0.7407
            }
          },
          {
            "elSymbol": "H",
            "p3d": {
              "x": -3.9276,
              "y": 2.975,
              "z": 1.7817
            }
          },
          {
            "elSymbol": "C",
            "p3d": {
              "x": -3.7598,
              "y": 2.1938,
              "z": -0.2148
            }
          },
          {
            "elSymbol": "H",
            "p3d": {
              "x": -4.5232,
              "y": 1.4545,
              "z": 0.0879
            }
          },
          {
            "elSymbol": "H",
            "p3d": {
              "x": -4.218,
              "y": 2.9166,
              "z": -0.8771
            }
          },
          {
            "elSymbol": "C",
            "p3d": {
              "x": -2.6022,
              "y": 1.5522,
              "z": -0.816
            }
          },
          {
            "elSymbol": "H",
            "p3d": {
              "x": -2.0593,
              "y": 2.2535,
              "z": -1.4546
            }
          },
          {
            "elSymbol": "H",
            "p3d": {
              "x": -2.9084,
              "y": 0.6969,
              "z": -1.4358
            }
          },
          {
            "elSymbol": "C",
            "p3d": {
              "x": -1.7245,
              "y": 1.0767,
              "z": 0.3024
            }
          },
          {
            "elSymbol": "H",
            "p3d": {
              "x": -1.937,
              "y": 0.0454,
              "z": 0.5649
            }
          },
          {
            "elSymbol": "H",
            "p3d": {
              "x": -0.6676,
              "y": 1.1814,
              "z": 0.0388
            }
          }
        ],
        "bonds": [
          {
            "atomIds": [
              1,
              0
            ],
            "bo": "SINGLE"
          },
          {
            "atomIds": [
              2,
              1
            ],
            "bo": "SINGLE"
          },
          {
            "atomIds": [
              3,
              1
            ],
            "bo": "SINGLE"
          },
          {
            "atomIds": [
              4,
              1
            ],
            "bo": "SINGLE"
          },
          {
            "atomIds": [
              5,
              4
            ],
            "bo": "SINGLE"
          },
          {
            "atomIds": [
              6,
              4
            ],
            "bo": "SINGLE"
          },
          {
            "atomIds": [
              7,
              4
            ],
            "bo": "SINGLE"
          },
          {
            "atomIds": [
              8,
              7
            ],
            "bo": "SINGLE"
          },
          {
            "atomIds": [
              9,
              7
            ],
            "bo": "SINGLE"
          },
          {
            "atomIds": [
              10,
              0
            ],
            "bo": "SINGLE"
          },
          {
            "atomIds": [
              11,
              10
            ],
            "bo": "SINGLE"
          },
          {
            "atomIds": [
              12,
              10
            ],
            "bo": "SINGLE"
          },
          {
            "atomIds": [
              7,
              10
            ],
            "bo": "SINGLE"
          }
        ]
      },
      "vertexId": 23403,
      "buildingBlockId": 6,
      "buildingBlockType": "FRAGMENT",
      "isRCV": false,
      "properties": {
        "ATTACHMENT_POINTS": "1#LAminoPhosphineCycloN:1:SINGLE:-1.0842%2.3540%2.6746 "
      },
      "uniquefyingPropertyKeys": [],
      "allowedMutationTypes": [
        "DELETE",
        "EXTEND",
        "CHANGEBRANCH",
        "CHANGELINK",
        "ADDLINK",
        "DELETELINK",
        "DELETECHAIN"
      ],
      "vertexType": "MolecularFragment"
    },
    {
      "lstAPs": [
        {
          "id": 32267,
          "atomPositionNumber": 0,
          "atomPositionNumberInMol": 24,
          "apClass": {
            "rule": "SubRM",
            "subClass": 1,
            "bndTyp": "SINGLE"
          },
          "dirVec": {
            "x": 0.2917,
            "y": 0.3929,
            "z": -0.6365
          }
        }
      ],
      "lstSymAPs": [],
      "mol": {
        "atoms": [
          {
            "elSymbol": "C",
            "p3d": {
              "x": 1.7002,
              "y": 0.56,
              "z": -1.2045
            }
          },
          {
            "elSymbol": "C",
            "p3d": {
              "x": 3.564,
              "y": -0.7339,
              "z": -2.2652
            }
          },
          {
            "elSymbol": "C",
            "p3d": {
              "x": 2.9237,
              "y": 1.5034,
              "z": -3.1926
            }
          },
          {
            "elSymbol": "C",
            "p3d": {
              "x": 3.4145,
              "y": 0.0994,
              "z": -3.5498
            }
          },
          {
            "elSymbol": "C",
            "p3d": {
              "x": 1.5576,
              "y": 1.3879,
              "z": -2.5024
            }
          },
          {
            "elSymbol": "C",
            "p3d": {
              "x": 2.203,
              "y": -0.843,
              "z": -1.5702
            }
          },
          {
            "elSymbol": "H",
            "p3d": {
              "x": 4.3384,
              "y": -0.3241,
              "z": -1.6106
            }
          },
          {
            "elSymbol": "H",
            "p3d": {
              "x": 3.6361,
              "y": 2.0524,
              "z": -2.5991
            }
          },
          {
            "elSymbol": "H",
            "p3d": {
              "x": 2.7828,
              "y": -0.3911,
              "z": -4.2916
            }
          },
          {
            "elSymbol": "H",
            "p3d": {
              "x": 0.7737,
              "y": 0.9833,
              "z": -3.15
            }
          },
          {
            "elSymbol": "H",
            "p3d": {
              "x": 1.4815,
              "y": -1.3988,
              "z": -2.1783
            }
          },
          {
            "elSymbol": "H",
            "p3d": {
              "x": 2.3445,
              "y": 1.0609,
              "z": -0.4835
            }
          },
          {
            "elSymbol": "H",
            "p3d": {
              "x": 3.8429,
              "y": -1.7623,
              "z": -2.577
            }
          },
          {
            "elSymbol": "H",
            "p3d": {
              "x": 2.7428,
              "y": 2.0124,
              "z": -4.146
            }
          },
          {
            "elSymbol": "H",
            "p3d": {
              "x": 4.4291,
              "y": 0.2183,
              "z": -3.9628
            }
          },
          {
            "elSymbol": "H",
            "p3d": {
              "x": 1.2819,
              "y": 2.4034,
              "z": -2.1821
            }
          },
          {
            "elSymbol": "H",
            "p3d": {
              "x": 2.3734,
              "y": -1.3662,
              "z": -0.6149
            }
          }
        ],
        "bonds": [
          {
            "atomIds": [
              0,
              11
            ],
            "bo": "SINGLE"
          },
          {
            "atomIds": [
              0,
              4
            ],
            "bo": "SINGLE"
          },
          {
            "atomIds": [
              0,
              5
            ],
            "bo": "SINGLE"
          },
          {
            "atomIds": [
              1,
              6
            ],
            "bo": "SINGLE"
          },
          {
            "atomIds": [
              1,
              12
            ],
            "bo": "SINGLE"
          },
          {
            "atomIds": [
              1,
              3
            ],
            "bo": "SINGLE"
          },
          {
            "atomIds": [
              1,
              5
            ],
            "bo": "SINGLE"
          },
          {
            "atomIds": [
              2,
              7
            ],
            "bo": "SINGLE"
          },
          {
            "atomIds": [
              2,
              13
            ],
            "bo": "SINGLE"
          },
          {
            "atomIds": [
              2,
              4
            ],
            "bo": "SINGLE"
          },
          {
            "atomIds": [
              2,
              3
            ],
            "bo": "SINGLE"
          },
          {
            "atomIds": [
              3,
              8
            ],
            "bo": "SINGLE"
          },
          {
            "atomIds": [
              3,
              14
            ],
            "bo": "SINGLE"
          },
          {
            "atomIds": [
              4,
              9
            ],
            "bo": "SINGLE"
          },
          {
            "atomIds": [
              4,
              15
            ],
            "bo": "SINGLE"
          },
          {
            "atomIds": [
              5,
              10
            ],
            "bo": "SINGLE"
          },
          {
            "atomIds": [
              5,
              16
            ],
            "bo": "SINGLE"
          }
        ]
      },
      "vertexId": 23467,
      "buildingBlockId": 34,
      "buildingBlockType": "FRAGMENT",
      "isRCV": false,
      "properties": {
        "ATTACHMENT_POINTS": "1#SubRM:1:SINGLE:0.2917%0.3929%-0.6365 "
      },
      "uniquefyingPropertyKeys": [],
      "allowedMutationTypes": [
        "DELETE",
        "EXTEND",
        "CHANGEBRANCH",
        "CHANGELINK",
        "ADDLINK",
        "DELETELINK",
        "DELETECHAIN"
      ],
      "vertexType": "MolecularFragment"
    },
    {
      "lstAPs": [
        {
          "id": 32268,
          "atomPositionNumber": 0,
          "atomPositionNumberInMol": 41,
          "apClass": {
            "rule": "SubRM",
            "subClass": 1,
            "bndTyp": "SINGLE"
          },
          "dirVec": {
            "x": 0.2917,
            "y": 0.3929,
            "z": -0.6365
          }
        }
      ],
      "lstSymAPs": [],
      "mol": {
        "atoms": [
          {
            "elSymbol": "C",
            "p3d": {
              "x": 1.7002,
              "y": 0.56,
              "z": -1.2045
            }
          },
          {
            "elSymbol": "C",
            "p3d": {
              "x": 3.564,
              "y": -0.7339,
              "z": -2.2652
            }
          },
          {
            "elSymbol": "C",
            "p3d": {
              "x": 2.9237,
              "y": 1.5034,
              "z": -3.1926
            }
          },
          {
            "elSymbol": "C",
            "p3d": {
              "x": 3.4145,
              "y": 0.0994,
              "z": -3.5498
            }
          },
          {
            "elSymbol": "C",
            "p3d": {
              "x": 1.5576,
              "y": 1.3879,
              "z": -2.5024
            }
          },
          {
            "elSymbol": "C",
            "p3d": {
              "x": 2.203,
              "y": -0.843,
              "z": -1.5702
            }
          },
          {
            "elSymbol": "H",
            "p3d": {
              "x": 4.3384,
              "y": -0.3241,
              "z": -1.6106
            }
          },
          {
            "elSymbol": "H",
            "p3d": {
              "x": 3.6361,
              "y": 2.0524,
              "z": -2.5991
            }
          },
          {
            "elSymbol": "H",
            "p3d": {
              "x": 2.7828,
              "y": -0.3911,
              "z": -4.2916
            }
          },
          {
            "elSymbol": "H",
            "p3d": {
              "x": 0.7737,
              "y": 0.9833,
              "z": -3.15
            }
          },
          {
            "elSymbol": "H",
            "p3d": {
              "x": 1.4815,
              "y": -1.3988,
              "z": -2.1783
            }
          },
          {
            "elSymbol": "H",
            "p3d": {
              "x": 2.3445,
              "y": 1.0609,
              "z": -0.4835
            }
          },
          {
            "elSymbol": "H",
            "p3d": {
              "x": 3.8429,
              "y": -1.7623,
              "z": -2.577
            }
          },
          {
            "elSymbol": "H",
            "p3d": {
              "x": 2.7428,
              "y": 2.0124,
              "z": -4.146
            }
          },
          {
            "elSymbol": "H",
            "p3d": {
              "x": 4.4291,
              "y": 0.2183,
              "z": -3.9628
            }
          },
          {
            "elSymbol": "H",
            "p3d": {
              "x": 1.2819,
              "y": 2.4034,
              "z": -2.1821
            }
          },
          {
            "elSymbol": "H",
            "p3d": {
              "x": 2.3734,
              "y": -1.3662,
              "z": -0.6149
            }
          }
        ],
        "bonds": [
          {
            "atomIds": [
              0,
              11
            ],
            "bo": "SINGLE"
          },
          {
            "atomIds": [
              0,
              4
            ],
            "bo": "SINGLE"
          },
          {
            "atomIds": [
              0,
              5
            ],
            "bo": "SINGLE"
          },
          {
            "atomIds": [
              1,
              6
            ],
            "bo": "SINGLE"
          },
          {
            "atomIds": [
              1,
              12
            ],
            "bo": "SINGLE"
          },
          {
            "atomIds": [
              1,
              3
            ],
            "bo": "SINGLE"
          },
          {
            "atomIds": [
              1,
              5
            ],
            "bo": "SINGLE"
          },
          {
            "atomIds": [
              2,
              7
            ],
            "bo": "SINGLE"
          },
          {
            "atomIds": [
              2,
              13
            ],
            "bo": "SINGLE"
          },
          {
            "atomIds": [
              2,
              4
            ],
            "bo": "SINGLE"
          },
          {
            "atomIds": [
              2,
              3
            ],
            "bo": "SINGLE"
          },
          {
            "atomIds": [
              3,
              8
            ],
            "bo": "SINGLE"
          },
          {
            "atomIds": [
              3,
              14
            ],
            "bo": "SINGLE"
          },
          {
            "atomIds": [
              4,
              9
            ],
            "bo": "SINGLE"
          },
          {
            "atomIds": [
              4,
              15
            ],
            "bo": "SINGLE"
          },
          {
            "atomIds": [
              5,
              10
            ],
            "bo": "SINGLE"
          },
          {
            "atomIds": [
              5,
              16
            ],
            "bo": "SINGLE"
          }
        ]
      },
      "vertexId": 23415,
      "buildingBlockId": 34,
      "buildingBlockType": "FRAGMENT",
      "isRCV": false,
      "properties": {
        "ATTACHMENT_POINTS": "1#SubRM:1:SINGLE:0.2917%0.3929%-0.6365 "
      },
      "uniquefyingPropertyKeys": [],
      "allowedMutationTypes": [
        "DELETE",
        "EXTEND",
        "CHANGEBRANCH",
        "CHANGELINK",
        "ADDLINK",
        "DELETELINK",
        "DELETECHAIN"
      ],
      "vertexType": "MolecularFragment"
    }
  ],
  "gEdges": [
    {
      "srcAPID": 32221,
      "trgAPID": 32224,
      "bondType": "SINGLE"
    },
    {
      "srcAPID": 32223,
      "trgAPID": 32228,
      "bondType": "SINGLE"
    },
    {
      "srcAPID": 32222,
      "trgAPID": 32229,
      "bondType": "SINGLE"
    },
    {
      "srcAPID": 32225,
      "trgAPID": 32266,
      "bondType": "SINGLE"
    },
    {
      "srcAPID": 32227,
      "trgAPID": 32267,
      "bondType": "SINGLE"
    },
    {
      "srcAPID": 32226,
      "trgAPID": 32268,
      "bondType": "SINGLE"
    }
  ],
  "gRings": [],
  "symVertices": [
    {
      "symIds": [
        23467,
        23415
      ]
    }
  ]
}

> <SMILES>
[Pt](C#O)(SC([H])([H])[H])([P](N1C([H])([H])C([H])([H])C([H])([H])C1([H])[H])(C2([H])C(C([H])([H])C(C([H])([H])C2([H])[H])([H])[H])([H])[H])C3([H])C(C([H])([H])C(C([H])([H])C3([H])[H])([H])[H])([H])[H])SC([H])([H])[H]

$$$$
