M00003992
  CDK     04222210083D

 45 47  0  0  0  0  0  0  0  0999 V2000
   -3.8928   -0.2876    0.0036 Pt  0  0  0  0  0  0  0  0  0  0  0  0
   -5.8074   -0.3347    0.0237 C   0  0  0  0  0  0  0  0  0  0  0  0
   -6.9525   -0.3667    0.0321 O   0  0  0  0  0  0  0  0  0  0  0  0
   -3.9248    1.5564    0.9507 O   0  0  0  0  0  0  0  0  0  0  0  0
   -3.7869    2.6082    0.0299 C   0  0  0  0  0  0  0  0  0  0  0  0
   -3.8794    3.5365    0.6116 H   0  0  0  0  0  0  0  0  0  0  0  0
   -4.5861    2.5546   -0.7207 H   0  0  0  0  0  0  0  0  0  0  0  0
   -2.8023    2.5558   -0.4523 H   0  0  0  0  0  0  0  0  0  0  0  0
   -1.8693   -0.2533   -0.0176 C   0  0  1  0  0  0  0  0  0  0  0  0
   -1.0766    0.0717    1.0665 N   0  0  0  0  0  0  0  0  0  0  0  0
    0.2845   -0.0118    0.6992 C   0  0  0  0  0  0  0  0  0  0  0  0
    0.3222   -0.4069   -0.6433 C   0  0  0  0  0  0  0  0  0  0  0  0
   -1.0199   -0.5411   -1.0688 N   0  0  0  0  0  0  0  0  0  0  0  0
    1.4011    0.2748    1.6006 C   0  0  0  0  0  0  0  0  0  0  0  0
    1.5937    1.5750    2.0950 C   0  0  0  0  0  0  0  0  0  0  0  0
    0.9115    2.3754    1.8100 H   0  0  0  0  0  0  0  0  0  0  0  0
    2.6692    1.8390    2.9461 C   0  0  0  0  0  0  0  0  0  0  0  0
    2.8207    2.8468    3.3320 H   0  0  0  0  0  0  0  0  0  0  0  0
    3.5523    0.8141    3.3026 C   0  0  0  0  0  0  0  0  0  0  0  0
    4.3895    1.0239    3.9676 H   0  0  0  0  0  0  0  0  0  0  0  0
    3.3622   -0.4789    2.8049 C   0  0  0  0  0  0  0  0  0  0  0  0
    4.0522   -1.2762    3.0810 H   0  0  0  0  0  0  0  0  0  0  0  0
    2.2890   -0.7535    1.9534 C   0  0  0  0  0  0  0  0  0  0  0  0
    2.1408   -1.7602    1.5618 H   0  0  0  0  0  0  0  0  0  0  0  0
    1.4850   -0.6461   -1.4969 C   0  0  0  0  0  0  0  0  0  0  0  0
    2.4573    0.3577   -1.6377 C   0  0  0  0  0  0  0  0  0  0  0  0
    2.3394    1.3073   -1.1154 H   0  0  0  0  0  0  0  0  0  0  0  0
    3.5756    0.1314   -2.4434 C   0  0  0  0  0  0  0  0  0  0  0  0
    4.3303    0.9097   -2.5537 H   0  0  0  0  0  0  0  0  0  0  0  0
    3.7293   -1.0904   -3.1066 C   0  0  0  0  0  0  0  0  0  0  0  0
    4.6025   -1.2632   -3.7348 H   0  0  0  0  0  0  0  0  0  0  0  0
    2.7640   -2.0922   -2.9607 C   0  0  0  0  0  0  0  0  0  0  0  0
    2.8874   -3.0463   -3.4729 H   0  0  0  0  0  0  0  0  0  0  0  0
    1.6426   -1.8758   -2.1567 C   0  0  0  0  0  0  0  0  0  0  0  0
    0.8995   -2.6637   -2.0329 H   0  0  0  0  0  0  0  0  0  0  0  0
   -1.6198    0.4404    2.3806 C   0  0  0  0  0  0  0  0  0  0  0  0
   -0.8696    0.9517    3.0041 H   0  0  0  0  0  0  0  0  0  0  0  0
   -2.5013    1.1314    2.2440 H   0  0  0  0  0  0  0  0  0  0  0  0
   -1.9771   -0.4560    2.9206 H   0  0  0  0  0  0  0  0  0  0  0  0
   -1.4698   -0.9260   -2.4138 C   0  0  0  0  0  0  0  0  0  0  0  0
   -1.5335   -2.0315   -2.5050 H   0  0  0  0  0  0  0  0  0  0  0  0
   -2.4850   -0.5232   -2.6110 H   0  0  0  0  0  0  0  0  0  0  0  0
   -0.7796   -0.5460   -3.1877 H   0  0  0  0  0  0  0  0  0  0  0  0
   -3.8570   -2.0896   -0.8051 C   0  0  0  0  0  0  0  0  0  0  0  0
   -3.8113   -3.1409   -1.2846 N   0  0  0  0  0  0  0  0  0  0  0  0
  2  3  3  0  0  0  0
  1  2  1  0  0  0  0
  5  6  1  0  0  0  0
  5  7  1  0  0  0  0
  5  8  1  0  0  0  0
  4  5  1  0  0  0  0
  1  4  1  0  0  0  0
 10  9  1  0  0  0  0
 11 10  1  0  0  0  0
 12 11  2  0  0  0  0
 12 13  1  0  0  0  0
 13  9  1  0  0  0  0
  1  9  1  0  0  0  0
 15 14  1  0  0  0  0
 16 15  1  0  0  0  0
 17 15  2  0  0  0  0
 18 17  1  0  0  0  0
 19 17  1  0  0  0  0
 20 19  1  0  0  0  0
 21 19  2  0  0  0  0
 22 21  1  0  0  0  0
 23 14  2  0  0  0  0
 24 23  1  0  0  0  0
 21 23  1  0  0  0  0
 11 14  1  0  0  0  0
 26 25  1  0  0  0  0
 27 26  1  0  0  0  0
 28 26  2  0  0  0  0
 29 28  1  0  0  0  0
 30 28  1  0  0  0  0
 31 30  1  0  0  0  0
 32 30  2  0  0  0  0
 33 32  1  0  0  0  0
 34 25  2  0  0  0  0
 35 34  1  0  0  0  0
 32 34  1  0  0  0  0
 12 25  1  0  0  0  0
 36 37  1  0  0  0  0
 36 38  1  0  0  0  0
 36 39  1  0  0  0  0
 10 36  1  0  0  0  0
 40 41  1  0  0  0  0
 40 42  1  0  0  0  0
 40 43  1  0  0  0  0
 13 40  1  0  0  0  0
 44 45  3  0  0  0  0
  1 44  1  0  0  0  0
M  END
> <PM6_ENERGY>
223.598

> <UID>
VVEABNUDTHLJQQ-CZBJXIJUNA-N

> <FITNESS>
1.14558

> <GCODE>
4716

> <GraphENC>
4716 72_1_0,80_65_1,97_19_1,87_66_1,92895_22_1,92949_22_1,92881_31_1,92950_31_1, 72_0_80_0_SINGLE_Xlig:0_Xlig:1,72_2_97_0_SINGLE_scaff:0_MImidazolylidene:1,72_1_87_0_SINGLE_Xlig:0_Xlig:1,97_2_92895_0_SINGLE_LImidazolylideneSubCS:0_LImidazolylideneSubCS:1,97_3_92949_0_SINGLE_LImidazolylideneSubCS:0_LImidazolylideneSubCS:1,97_1_92881_0_SINGLE_LImidazolylideneSubNL:0_SubRS:1,97_4_92950_0_SINGLE_LImidazolylideneSubNL:0_SubRS:1, SymmetricSet [symIds=[92881, 92950]] SymmetricSet [symIds=[92895, 92949]] 

> <GraphJson>
{
  "graphId": 4716,
  "gVertices": [
    {
      "lstAPs": [
        {
          "id": 122276,
          "atomPositionNumber": 0,
          "atomPositionNumberInMol": 0,
          "apClass": {
            "rule": "Xlig",
            "subClass": 0,
            "bndTyp": "SINGLE"
          },
          "dirVec": {
            "x": -2.3339,
            "y": -0.0087,
            "z": 0.8172
          }
        },
        {
          "id": 122277,
          "atomPositionNumber": 0,
          "atomPositionNumberInMol": 0,
          "apClass": {
            "rule": "Xlig",
            "subClass": 0,
            "bndTyp": "SINGLE"
          },
          "dirVec": {
            "x": 2.336,
            "y": -5.0E-4,
            "z": 0.829
          }
        },
        {
          "id": 122278,
          "atomPositionNumber": 0,
          "atomPositionNumberInMol": 0,
          "apClass": {
            "rule": "scaff",
            "subClass": 0,
            "bndTyp": "SINGLE"
          },
          "dirVec": {
            "x": -0.0095,
            "y": 0.0046,
            "z": -1.7113
          }
        }
      ],
      "lstSymAPs": [
        {
          "symIds": [
            0,
            1
          ]
        }
      ],
      "mol": {
        "atoms": [
          {
            "elSymbol": "Pt",
            "p3d": {
              "x": -0.0098,
              "y": 0.0049,
              "z": 0.6289
            }
          },
          {
            "elSymbol": "C",
            "p3d": {
              "x": -6.0E-4,
              "y": 0.0016,
              "z": 2.5609
            }
          },
          {
            "elSymbol": "O",
            "p3d": {
              "x": 0.0025,
              "y": -0.0041,
              "z": 3.6974
            }
          },
          {
            "elSymbol": "Du",
            "p3d": {
              "x": -0.007,
              "y": 1.0013,
              "z": 0.6372
            }
          },
          {
            "elSymbol": "Du",
            "p3d": {
              "x": -0.0014,
              "y": 0.9902,
              "z": 2.5698
            }
          }
        ],
        "bonds": [
          {
            "atomIds": [
              1,
              2
            ],
            "bo": "TRIPLE"
          },
          {
            "atomIds": [
              0,
              1
            ],
            "bo": "SINGLE"
          },
          {
            "atomIds": [
              3,
              0
            ],
            "bo": "SINGLE"
          },
          {
            "atomIds": [
              4,
              1
            ],
            "bo": "SINGLE"
          }
        ]
      },
      "vertexId": 72,
      "buildingBlockId": 0,
      "buildingBlockType": "SCAFFOLD",
      "isRCV": false,
      "properties": {
        "ATTACHMENT_POINTS": "1#Xlig:0:SINGLE:-2.3339%-0.0087%0.8172,Xlig:0:SINGLE:2.3360%-0.0005%0.8290,scaff:0:SINGLE:-0.0095%0.0046%-1.7113 "
      },
      "uniquefyingPropertyKeys": [],
      "allowedMutationTypes": [
        "DELETE",
        "EXTEND",
        "CHANGEBRANCH",
        "CHANGELINK",
        "ADDLINK",
        "DELETELINK",
        "DELETECHAIN"
      ],
      "vertexType": "MolecularFragment"
    },
    {
      "lstAPs": [
        {
          "id": 122279,
          "atomPositionNumber": 0,
          "atomPositionNumberInMol": 5,
          "apClass": {
            "rule": "Xlig",
            "subClass": 1,
            "bndTyp": "SINGLE"
          },
          "dirVec": {
            "x": -0.1753,
            "y": 0.0948,
            "z": -0.4464
          }
        }
      ],
      "lstSymAPs": [],
      "mol": {
        "atoms": [
          {
            "elSymbol": "O",
            "p3d": {
              "x": -0.3534,
              "y": 2.1044,
              "z": -0.7339
            }
          },
          {
            "elSymbol": "C",
            "p3d": {
              "x": -0.5345,
              "y": 2.7646,
              "z": 0.4801
            }
          },
          {
            "elSymbol": "H",
            "p3d": {
              "x": -0.3728,
              "y": 3.8337,
              "z": 0.2724
            }
          },
          {
            "elSymbol": "H",
            "p3d": {
              "x": 0.1816,
              "y": 2.4161,
              "z": 1.2384
            }
          },
          {
            "elSymbol": "H",
            "p3d": {
              "x": -1.553,
              "y": 2.6149,
              "z": 0.8489
            }
          }
        ],
        "bonds": [
          {
            "atomIds": [
              1,
              2
            ],
            "bo": "SINGLE"
          },
          {
            "atomIds": [
              1,
              3
            ],
            "bo": "SINGLE"
          },
          {
            "atomIds": [
              1,
              4
            ],
            "bo": "SINGLE"
          },
          {
            "atomIds": [
              0,
              1
            ],
            "bo": "SINGLE"
          }
        ]
      },
      "vertexId": 80,
      "buildingBlockId": 64,
      "buildingBlockType": "FRAGMENT",
      "isRCV": false,
      "properties": {
        "ATTACHMENT_POINTS": "1#Xlig:1:SINGLE:-0.1753%0.0948%-0.4464 "
      },
      "uniquefyingPropertyKeys": [],
      "allowedMutationTypes": [
        "DELETE",
        "EXTEND",
        "CHANGEBRANCH",
        "CHANGELINK",
        "ADDLINK",
        "DELETELINK",
        "DELETECHAIN"
      ],
      "vertexType": "MolecularFragment"
    },
    {
      "lstAPs": [
        {
          "id": 122280,
          "atomPositionNumber": 0,
          "atomPositionNumberInMol": 10,
          "apClass": {
            "rule": "MImidazolylidene",
            "subClass": 1,
            "bndTyp": "SINGLE"
          },
          "dirVec": {
            "x": 6.9056,
            "y": 0.097,
            "z": 12.1004
          }
        },
        {
          "id": 122281,
          "atomPositionNumber": 1,
          "atomPositionNumberInMol": 11,
          "apClass": {
            "rule": "LImidazolylideneSubNL",
            "subClass": 0,
            "bndTyp": "SINGLE"
          },
          "dirVec": {
            "x": 4.1123,
            "y": 2.1609,
            "z": 11.1322
          }
        },
        {
          "id": 122282,
          "atomPositionNumber": 2,
          "atomPositionNumberInMol": 12,
          "apClass": {
            "rule": "LImidazolylideneSubCS",
            "subClass": 0,
            "bndTyp": "SINGLE"
          },
          "dirVec": {
            "x": 2.203,
            "y": 3.3086,
            "z": 13.3341
          }
        },
        {
          "id": 122283,
          "atomPositionNumber": 3,
          "atomPositionNumberInMol": 13,
          "apClass": {
            "rule": "LImidazolylideneSubCS",
            "subClass": 0,
            "bndTyp": "SINGLE"
          },
          "dirVec": {
            "x": 3.4334,
            "y": 2.3948,
            "z": 16.1586
          }
        },
        {
          "id": 122284,
          "atomPositionNumber": 4,
          "atomPositionNumberInMol": 14,
          "apClass": {
            "rule": "LImidazolylideneSubNL",
            "subClass": 0,
            "bndTyp": "SINGLE"
          },
          "dirVec": {
            "x": 5.9067,
            "y": 0.5846,
            "z": 15.5163
          }
        }
      ],
      "lstSymAPs": [
        {
          "symIds": [
            1,
            4
          ]
        },
        {
          "symIds": [
            2,
            3
          ]
        }
      ],
      "mol": {
        "atoms": [
          {
            "elSymbol": "C",
            "p3d": {
              "x": 5.2812,
              "y": 1.2018,
              "z": 13.1656
            }
          },
          {
            "elSymbol": "N",
            "p3d": {
              "x": 4.2675,
              "y": 1.9426,
              "z": 12.5989
            }
          },
          {
            "elSymbol": "C",
            "p3d": {
              "x": 3.4407,
              "y": 2.4761,
              "z": 13.582
            }
          },
          {
            "elSymbol": "C",
            "p3d": {
              "x": 3.9357,
              "y": 2.0507,
              "z": 14.777
            }
          },
          {
            "elSymbol": "N",
            "p3d": {
              "x": 5.0694,
              "y": 1.2634,
              "z": 14.5115
            }
          }
        ],
        "bonds": [
          {
            "atomIds": [
              1,
              0
            ],
            "bo": "SINGLE"
          },
          {
            "atomIds": [
              2,
              1
            ],
            "bo": "SINGLE"
          },
          {
            "atomIds": [
              3,
              2
            ],
            "bo": "DOUBLE"
          },
          {
            "atomIds": [
              3,
              4
            ],
            "bo": "SINGLE"
          },
          {
            "atomIds": [
              4,
              0
            ],
            "bo": "SINGLE"
          }
        ]
      },
      "vertexId": 97,
      "buildingBlockId": 18,
      "buildingBlockType": "FRAGMENT",
      "isRCV": false,
      "properties": {
        "ATTACHMENT_POINTS": "1#MImidazolylidene:1:SINGLE:6.9056%0.0970%12.1004 2#LImidazolylideneSubNL:0:SINGLE:4.1123%2.1609%11.1322 3#LImidazolylideneSubCS:0:SINGLE:2.2030%3.3086%13.3341 4#LImidazolylideneSubCS:0:SINGLE:3.4334%2.3948%16.1586 5#LImidazolylideneSubNL:0:SINGLE:5.9067%0.5846%15.5163 "
      },
      "uniquefyingPropertyKeys": [],
      "allowedMutationTypes": [
        "DELETE",
        "EXTEND",
        "CHANGEBRANCH",
        "CHANGELINK",
        "ADDLINK",
        "DELETELINK",
        "DELETECHAIN"
      ],
      "vertexType": "MolecularFragment"
    },
    {
      "lstAPs": [
        {
          "id": 122285,
          "atomPositionNumber": 0,
          "atomPositionNumberInMol": 45,
          "apClass": {
            "rule": "Xlig",
            "subClass": 1,
            "bndTyp": "SINGLE"
          },
          "dirVec": {
            "x": 0.0192,
            "y": -0.0048,
            "z": -0.5645
          }
        }
      ],
      "lstSymAPs": [],
      "mol": {
        "atoms": [
          {
            "elSymbol": "C",
            "p3d": {
              "x": -1.967,
              "y": -0.0075,
              "z": -0.4937
            }
          },
          {
            "elSymbol": "N",
            "p3d": {
              "x": -3.1263,
              "y": -0.0054,
              "z": -0.4354
            }
          },
          {
            "elSymbol": "Du",
            "p3d": {
              "x": -1.9744,
              "y": 0.9926,
              "z": -0.5036
            }
          }
        ],
        "bonds": [
          {
            "atomIds": [
              0,
              1
            ],
            "bo": "TRIPLE"
          },
          {
            "atomIds": [
              2,
              0
            ],
            "bo": "SINGLE"
          }
        ]
      },
      "vertexId": 87,
      "buildingBlockId": 65,
      "buildingBlockType": "FRAGMENT",
      "isRCV": false,
      "properties": {
        "ATTACHMENT_POINTS": "1#Xlig:1:SINGLE:0.0192%-0.0048%-0.5645 "
      },
      "uniquefyingPropertyKeys": [],
      "allowedMutationTypes": [
        "DELETE",
        "EXTEND",
        "CHANGEBRANCH",
        "CHANGELINK",
        "ADDLINK",
        "DELETELINK",
        "DELETECHAIN"
      ],
      "vertexType": "MolecularFragment"
    },
    {
      "lstAPs": [
        {
          "id": 122328,
          "atomPositionNumber": 0,
          "atomPositionNumberInMol": 15,
          "apClass": {
            "rule": "LImidazolylideneSubCS",
            "subClass": 1,
            "bndTyp": "SINGLE"
          },
          "dirVec": {
            "x": -0.2332,
            "y": -4.1999,
            "z": 3.5795
          }
        }
      ],
      "lstSymAPs": [],
      "mol": {
        "atoms": [
          {
            "elSymbol": "C",
            "p3d": {
              "x": 0.8656,
              "y": -5.2062,
              "z": 3.807
            }
          },
          {
            "elSymbol": "C",
            "p3d": {
              "x": 1.054,
              "y": -6.2399,
              "z": 2.8975
            }
          },
          {
            "elSymbol": "H",
            "p3d": {
              "x": 0.3991,
              "y": -6.3501,
              "z": 2.038
            }
          },
          {
            "elSymbol": "C",
            "p3d": {
              "x": 2.0673,
              "y": -7.188,
              "z": 3.1349
            }
          },
          {
            "elSymbol": "H",
            "p3d": {
              "x": 2.2054,
              "y": -7.9981,
              "z": 2.4322
            }
          },
          {
            "elSymbol": "C",
            "p3d": {
              "x": 2.901,
              "y": -7.078,
              "z": 4.2128
            }
          },
          {
            "elSymbol": "H",
            "p3d": {
              "x": 3.6958,
              "y": -7.8112,
              "z": 4.3872
            }
          },
          {
            "elSymbol": "C",
            "p3d": {
              "x": 2.7401,
              "y": -6.0405,
              "z": 5.1034
            }
          },
          {
            "elSymbol": "H",
            "p3d": {
              "x": 3.412,
              "y": -5.9498,
              "z": 5.9565
            }
          },
          {
            "elSymbol": "C",
            "p3d": {
              "x": 1.7365,
              "y": -5.0846,
              "z": 4.9051
            }
          },
          {
            "elSymbol": "H",
            "p3d": {
              "x": 1.6174,
              "y": -4.2762,
              "z": 5.6042
            }
          }
        ],
        "bonds": [
          {
            "atomIds": [
              1,
              0
            ],
            "bo": "SINGLE"
          },
          {
            "atomIds": [
              2,
              1
            ],
            "bo": "SINGLE"
          },
          {
            "atomIds": [
              3,
              1
            ],
            "bo": "DOUBLE"
          },
          {
            "atomIds": [
              4,
              3
            ],
            "bo": "SINGLE"
          },
          {
            "atomIds": [
              5,
              3
            ],
            "bo": "SINGLE"
          },
          {
            "atomIds": [
              6,
              5
            ],
            "bo": "SINGLE"
          },
          {
            "atomIds": [
              7,
              5
            ],
            "bo": "DOUBLE"
          },
          {
            "atomIds": [
              8,
              7
            ],
            "bo": "SINGLE"
          },
          {
            "atomIds": [
              9,
              0
            ],
            "bo": "DOUBLE"
          },
          {
            "atomIds": [
              10,
              9
            ],
            "bo": "SINGLE"
          },
          {
            "atomIds": [
              7,
              9
            ],
            "bo": "SINGLE"
          }
        ]
      },
      "vertexId": 92895,
      "buildingBlockId": 21,
      "buildingBlockType": "FRAGMENT",
      "isRCV": false,
      "properties": {
        "ATTACHMENT_POINTS": "1#LImidazolylideneSubCS:1:SINGLE:-0.2332%-4.1999%3.5795 "
      },
      "uniquefyingPropertyKeys": [],
      "allowedMutationTypes": [
        "DELETE",
        "EXTEND",
        "CHANGEBRANCH",
        "CHANGELINK",
        "ADDLINK",
        "DELETELINK",
        "DELETECHAIN"
      ],
      "vertexType": "MolecularFragment"
    },
    {
      "lstAPs": [
        {
          "id": 122329,
          "atomPositionNumber": 0,
          "atomPositionNumberInMol": 26,
          "apClass": {
            "rule": "LImidazolylideneSubCS",
            "subClass": 1,
            "bndTyp": "SINGLE"
          },
          "dirVec": {
            "x": -0.2332,
            "y": -4.1999,
            "z": 3.5795
          }
        }
      ],
      "lstSymAPs": [],
      "mol": {
        "atoms": [
          {
            "elSymbol": "C",
            "p3d": {
              "x": 0.8656,
              "y": -5.2062,
              "z": 3.807
            }
          },
          {
            "elSymbol": "C",
            "p3d": {
              "x": 1.054,
              "y": -6.2399,
              "z": 2.8975
            }
          },
          {
            "elSymbol": "H",
            "p3d": {
              "x": 0.3991,
              "y": -6.3501,
              "z": 2.038
            }
          },
          {
            "elSymbol": "C",
            "p3d": {
              "x": 2.0673,
              "y": -7.188,
              "z": 3.1349
            }
          },
          {
            "elSymbol": "H",
            "p3d": {
              "x": 2.2054,
              "y": -7.9981,
              "z": 2.4322
            }
          },
          {
            "elSymbol": "C",
            "p3d": {
              "x": 2.901,
              "y": -7.078,
              "z": 4.2128
            }
          },
          {
            "elSymbol": "H",
            "p3d": {
              "x": 3.6958,
              "y": -7.8112,
              "z": 4.3872
            }
          },
          {
            "elSymbol": "C",
            "p3d": {
              "x": 2.7401,
              "y": -6.0405,
              "z": 5.1034
            }
          },
          {
            "elSymbol": "H",
            "p3d": {
              "x": 3.412,
              "y": -5.9498,
              "z": 5.9565
            }
          },
          {
            "elSymbol": "C",
            "p3d": {
              "x": 1.7365,
              "y": -5.0846,
              "z": 4.9051
            }
          },
          {
            "elSymbol": "H",
            "p3d": {
              "x": 1.6174,
              "y": -4.2762,
              "z": 5.6042
            }
          }
        ],
        "bonds": [
          {
            "atomIds": [
              1,
              0
            ],
            "bo": "SINGLE"
          },
          {
            "atomIds": [
              2,
              1
            ],
            "bo": "SINGLE"
          },
          {
            "atomIds": [
              3,
              1
            ],
            "bo": "DOUBLE"
          },
          {
            "atomIds": [
              4,
              3
            ],
            "bo": "SINGLE"
          },
          {
            "atomIds": [
              5,
              3
            ],
            "bo": "SINGLE"
          },
          {
            "atomIds": [
              6,
              5
            ],
            "bo": "SINGLE"
          },
          {
            "atomIds": [
              7,
              5
            ],
            "bo": "DOUBLE"
          },
          {
            "atomIds": [
              8,
              7
            ],
            "bo": "SINGLE"
          },
          {
            "atomIds": [
              9,
              0
            ],
            "bo": "DOUBLE"
          },
          {
            "atomIds": [
              10,
              9
            ],
            "bo": "SINGLE"
          },
          {
            "atomIds": [
              7,
              9
            ],
            "bo": "SINGLE"
          }
        ]
      },
      "vertexId": 92949,
      "buildingBlockId": 21,
      "buildingBlockType": "FRAGMENT",
      "isRCV": false,
      "properties": {
        "ATTACHMENT_POINTS": "1#LImidazolylideneSubCS:1:SINGLE:-0.2332%-4.1999%3.5795 "
      },
      "uniquefyingPropertyKeys": [],
      "allowedMutationTypes": [
        "DELETE",
        "EXTEND",
        "CHANGEBRANCH",
        "CHANGELINK",
        "ADDLINK",
        "DELETELINK",
        "DELETECHAIN"
      ],
      "vertexType": "MolecularFragment"
    },
    {
      "lstAPs": [
        {
          "id": 122330,
          "atomPositionNumber": 0,
          "atomPositionNumberInMol": 37,
          "apClass": {
            "rule": "SubRS",
            "subClass": 1,
            "bndTyp": "SINGLE"
          },
          "dirVec": {
            "x": 0.2865,
            "y": 0.3959,
            "z": -0.6387
          }
        }
      ],
      "lstSymAPs": [],
      "mol": {
        "atoms": [
          {
            "elSymbol": "C",
            "p3d": {
              "x": 0.3969,
              "y": -0.0496,
              "z": 0.8235
            }
          },
          {
            "elSymbol": "H",
            "p3d": {
              "x": -0.6146,
              "y": -0.163,
              "z": 1.2402
            }
          },
          {
            "elSymbol": "H",
            "p3d": {
              "x": 0.9335,
              "y": -0.9979,
              "z": 0.8998
            }
          },
          {
            "elSymbol": "H",
            "p3d": {
              "x": 0.9252,
              "y": 0.7237,
              "z": 1.3995
            }
          }
        ],
        "bonds": [
          {
            "atomIds": [
              0,
              1
            ],
            "bo": "SINGLE"
          },
          {
            "atomIds": [
              0,
              2
            ],
            "bo": "SINGLE"
          },
          {
            "atomIds": [
              0,
              3
            ],
            "bo": "SINGLE"
          }
        ]
      },
      "vertexId": 92881,
      "buildingBlockId": 30,
      "buildingBlockType": "FRAGMENT",
      "isRCV": false,
      "properties": {
        "ATTACHMENT_POINTS": "1#SubRS:1:SINGLE:0.2865%0.3959%-0.6387 "
      },
      "uniquefyingPropertyKeys": [],
      "allowedMutationTypes": [
        "DELETE",
        "EXTEND",
        "CHANGEBRANCH",
        "CHANGELINK",
        "ADDLINK",
        "DELETELINK",
        "DELETECHAIN"
      ],
      "vertexType": "MolecularFragment"
    },
    {
      "lstAPs": [
        {
          "id": 122331,
          "atomPositionNumber": 0,
          "atomPositionNumberInMol": 41,
          "apClass": {
            "rule": "SubRS",
            "subClass": 1,
            "bndTyp": "SINGLE"
          },
          "dirVec": {
            "x": 0.2865,
            "y": 0.3959,
            "z": -0.6387
          }
        }
      ],
      "lstSymAPs": [],
      "mol": {
        "atoms": [
          {
            "elSymbol": "C",
            "p3d": {
              "x": 0.3969,
              "y": -0.0496,
              "z": 0.8235
            }
          },
          {
            "elSymbol": "H",
            "p3d": {
              "x": -0.6146,
              "y": -0.163,
              "z": 1.2402
            }
          },
          {
            "elSymbol": "H",
            "p3d": {
              "x": 0.9335,
              "y": -0.9979,
              "z": 0.8998
            }
          },
          {
            "elSymbol": "H",
            "p3d": {
              "x": 0.9252,
              "y": 0.7237,
              "z": 1.3995
            }
          }
        ],
        "bonds": [
          {
            "atomIds": [
              0,
              1
            ],
            "bo": "SINGLE"
          },
          {
            "atomIds": [
              0,
              2
            ],
            "bo": "SINGLE"
          },
          {
            "atomIds": [
              0,
              3
            ],
            "bo": "SINGLE"
          }
        ]
      },
      "vertexId": 92950,
      "buildingBlockId": 30,
      "buildingBlockType": "FRAGMENT",
      "isRCV": false,
      "properties": {
        "ATTACHMENT_POINTS": "1#SubRS:1:SINGLE:0.2865%0.3959%-0.6387 "
      },
      "uniquefyingPropertyKeys": [],
      "allowedMutationTypes": [
        "DELETE",
        "EXTEND",
        "CHANGEBRANCH",
        "CHANGELINK",
        "ADDLINK",
        "DELETELINK",
        "DELETECHAIN"
      ],
      "vertexType": "MolecularFragment"
    }
  ],
  "gEdges": [
    {
      "srcAPID": 122276,
      "trgAPID": 122279,
      "bondType": "SINGLE"
    },
    {
      "srcAPID": 122278,
      "trgAPID": 122280,
      "bondType": "SINGLE"
    },
    {
      "srcAPID": 122277,
      "trgAPID": 122285,
      "bondType": "SINGLE"
    },
    {
      "srcAPID": 122282,
      "trgAPID": 122328,
      "bondType": "SINGLE"
    },
    {
      "srcAPID": 122283,
      "trgAPID": 122329,
      "bondType": "SINGLE"
    },
    {
      "srcAPID": 122281,
      "trgAPID": 122330,
      "bondType": "SINGLE"
    },
    {
      "srcAPID": 122284,
      "trgAPID": 122331,
      "bondType": "SINGLE"
    }
  ],
  "gRings": [],
  "symVertices": [
    {
      "symIds": [
        92881,
        92950
      ]
    },
    {
      "symIds": [
        92895,
        92949
      ]
    }
  ]
}

> <SMILES>
[Pt](C#O)(OC([H])([H])[H])([C]1N(C(=C(N1C([H])([H])[H])C=2C([H])=C([H])C([H])=C([H])C2[H])C=3C([H])=C([H])C([H])=C([H])C3[H])C([H])([H])[H])C#N

$$$$
