M00014927
  CDK     04222214003D

 48 49  0  0  0  0  0  0  0  0999 V2000
    2.5256    0.0543    0.1311 Pt  0  0  0  0  0  0  0  0  0  0  0  0
    4.4576   -0.0221   -0.0025 C   0  0  0  0  0  0  0  0  0  0  0  0
    5.5957   -0.0653   -0.0998 O   0  0  0  0  0  0  0  0  0  0  0  0
    2.4544   -2.2316   -0.2866 Cl  0  0  0  0  0  0  0  0  0  0  0  0
   -0.2557    0.0216   -0.8189 N   0  0  0  0  0  0  0  0  0  0  0  0
    0.5327    0.1307    0.2414 C   0  0  2  0  0  0  0  0  0  0  0  0
   -0.2770    0.3225    1.5188 C   0  0  1  0  0  0  0  0  0  0  0  0
   -1.7555    0.1501    1.0458 C   0  0  0  0  0  0  0  0  0  0  0  0
   -1.7567    0.0614   -0.5034 C   0  0  0  0  0  0  0  0  0  0  0  0
   -2.2065   -0.7542    1.4957 H   0  0  0  0  0  0  0  0  0  0  0  0
   -2.3815    0.9900    1.3990 H   0  0  0  0  0  0  0  0  0  0  0  0
   -2.3692    1.2985   -1.1576 C   0  0  0  0  0  0  0  0  0  0  0  0
   -1.8922    2.2265   -0.8145 H   0  0  0  0  0  0  0  0  0  0  0  0
   -3.4384    1.3785   -0.9247 H   0  0  0  0  0  0  0  0  0  0  0  0
   -2.2822    1.2739   -2.2521 H   0  0  0  0  0  0  0  0  0  0  0  0
    0.2283   -0.1237   -2.1856 C   0  0  0  0  0  0  0  0  0  0  0  0
    1.0883   -0.3905   -4.8148 C   0  0  0  0  0  0  0  0  0  0  0  0
    0.4447   -1.4075   -2.7077 C   0  0  0  0  0  0  0  0  0  0  0  0
    0.4546    1.0295   -2.9528 C   0  0  0  0  0  0  0  0  0  0  0  0
    0.8838    0.8840   -4.2745 C   0  0  0  0  0  0  0  0  0  0  0  0
    0.8759   -1.5300   -4.0317 C   0  0  0  0  0  0  0  0  0  0  0  0
    0.3067   -2.2943   -2.0853 H   0  0  0  0  0  0  0  0  0  0  0  0
    0.3179    2.0216   -2.5211 H   0  0  0  0  0  0  0  0  0  0  0  0
    1.0685    1.7702   -4.8821 H   0  0  0  0  0  0  0  0  0  0  0  0
    1.0580   -2.5212   -4.4484 H   0  0  0  0  0  0  0  0  0  0  0  0
    1.4255   -0.4953   -5.8459 H   0  0  0  0  0  0  0  0  0  0  0  0
    0.1305   -0.7205    2.6049 C   0  0  0  0  0  0  0  0  0  0  0  0
   -0.4445   -0.4512    3.5292 H   0  0  0  0  0  0  0  0  0  0  0  0
    1.6285   -0.6330    2.9285 C   0  0  0  0  0  0  0  0  0  0  0  0
    1.8291   -0.9849    3.9467 H   0  0  0  0  0  0  0  0  0  0  0  0
    2.0121    0.3992    2.8557 H   0  0  0  0  0  0  0  0  0  0  0  0
    2.2386   -1.2589    2.2553 H   0  0  0  0  0  0  0  0  0  0  0  0
   -0.2410   -2.1542    2.2146 C   0  0  0  0  0  0  0  0  0  0  0  0
    0.2637   -2.4720    1.2918 H   0  0  0  0  0  0  0  0  0  0  0  0
   -1.3195   -2.2761    2.0676 H   0  0  0  0  0  0  0  0  0  0  0  0
    0.0669   -2.8615    2.9947 H   0  0  0  0  0  0  0  0  0  0  0  0
   -2.4104   -1.2206   -1.0137 C   0  0  0  0  0  0  0  0  0  0  0  0
   -2.3551   -1.3068   -2.1074 H   0  0  0  0  0  0  0  0  0  0  0  0
   -3.4734   -1.2544   -0.7438 H   0  0  0  0  0  0  0  0  0  0  0  0
   -1.9387   -2.1205   -0.5957 H   0  0  0  0  0  0  0  0  0  0  0  0
   -0.0302    1.7629    2.0371 C   0  0  0  0  0  0  0  0  0  0  0  0
    1.0163    1.8329    2.4188 H   0  0  0  0  0  0  0  0  0  0  0  0
   -0.0819    2.4822    1.1951 H   0  0  0  0  0  0  0  0  0  0  0  0
   -0.9875    2.1910    3.1441 C   0  0  0  0  0  0  0  0  0  0  0  0
   -2.0315    2.1971    2.8078 H   0  0  0  0  0  0  0  0  0  0  0  0
   -0.7487    3.2051    3.4894 H   0  0  0  0  0  0  0  0  0  0  0  0
   -0.9229    1.5282    4.0160 H   0  0  0  0  0  0  0  0  0  0  0  0
    2.6959    2.3383    0.4415 Cl  0  0  0  0  0  0  0  0  0  0  0  0
  2  3  3  0  0  0  0
  1  2  1  0  0  0  0
  1  4  1  0  0  0  0
  5  6  1  0  0  0  0
  7  6  1  0  0  0  0
  8  7  1  0  0  0  0
  9  5  1  0  0  0  0
 10  8  1  0  0  0  0
 11  8  1  0  0  0  0
  8  9  1  0  0  0  0
  1  6  1  0  0  0  0
 13 12  1  0  0  0  0
 14 12  1  0  0  0  0
 15 12  1  0  0  0  0
  9 12  1  0  0  0  0
 16 19  1  0  0  0  0
 19 20  2  0  0  0  0
 17 20  1  0  0  0  0
 17 21  2  0  0  0  0
 18 21  1  0  0  0  0
 16 18  2  0  0  0  0
 20 24  1  0  0  0  0
 21 25  1  0  0  0  0
 17 26  1  0  0  0  0
 18 22  1  0  0  0  0
 19 23  1  0  0  0  0
  5 16  1  0  0  0  0
 28 27  1  0  0  0  0
 29 27  1  0  0  0  0
 30 29  1  0  0  0  0
 31 29  1  0  0  0  0
 32 29  1  0  0  0  0
 33 27  1  0  0  0  0
 34 33  1  0  0  0  0
 35 33  1  0  0  0  0
 36 33  1  0  0  0  0
  7 27  1  0  0  0  0
 38 37  1  0  0  0  0
 39 37  1  0  0  0  0
 40 37  1  0  0  0  0
  9 37  1  0  0  0  0
 42 41  1  0  0  0  0
 43 41  1  0  0  0  0
 44 41  1  0  0  0  0
 45 44  1  0  0  0  0
 46 44  1  0  0  0  0
 47 44  1  0  0  0  0
  7 41  1  0  0  0  0
  1 48  1  0  0  0  0
M  END
> <PM6_ENERGY>
-249.358

> <UID>
NCQRUPLKRRFYCF-HBYUZDFRNA-L

> <FITNESS>
1.14307

> <GCODE>
16162

> <GraphENC>
16162 72_1_0,82_67_1,92_14_1,88_67_1,331980_28_1,331634_36_1,331643_25_1,331654_28_1,331650_24_1, 72_0_82_0_SINGLE_Xlig:0_Xlig:1,72_2_92_1_SINGLE_scaff:0_MPyrrolidinylidene:1,72_1_88_0_SINGLE_Xlig:0_Xlig:1,92_5_331980_0_SINGLE_LPyrrolidinylideneSubCAlpha:0_LPyrrolidinylideneSubCAlpha:1,92_0_331634_0_SINGLE_LPyrrolidinylideneSubNS:0_SubArS:1,92_2_331643_0_SINGLE_LPyrrolidinylideneSubCGammaL:0_LPyrrolidinylideneSubCGammaL:1,92_4_331654_0_SINGLE_LPyrrolidinylideneSubCAlpha:0_LPyrrolidinylideneSubCAlpha:1,92_3_331650_0_SINGLE_LPyrrolidinylideneSubCGammaS:0_LPyrrolidinylideneSubCGammaS:1, SymmetricSet [symIds=[331980, 331654]] 

> <GraphJson>
{
  "graphId": 16162,
  "gVertices": [
    {
      "lstAPs": [
        {
          "id": 432489,
          "atomPositionNumber": 0,
          "atomPositionNumberInMol": 0,
          "apClass": {
            "rule": "Xlig",
            "subClass": 0,
            "bndTyp": "SINGLE"
          },
          "dirVec": {
            "x": -2.3339,
            "y": -0.0087,
            "z": 0.8172
          }
        },
        {
          "id": 432490,
          "atomPositionNumber": 0,
          "atomPositionNumberInMol": 0,
          "apClass": {
            "rule": "Xlig",
            "subClass": 0,
            "bndTyp": "SINGLE"
          },
          "dirVec": {
            "x": 2.336,
            "y": -5.0E-4,
            "z": 0.829
          }
        },
        {
          "id": 432491,
          "atomPositionNumber": 0,
          "atomPositionNumberInMol": 0,
          "apClass": {
            "rule": "scaff",
            "subClass": 0,
            "bndTyp": "SINGLE"
          },
          "dirVec": {
            "x": -0.0095,
            "y": 0.0046,
            "z": -1.7113
          }
        }
      ],
      "lstSymAPs": [
        {
          "symIds": [
            0,
            1
          ]
        }
      ],
      "mol": {
        "atoms": [
          {
            "elSymbol": "Pt",
            "p3d": {
              "x": -0.0098,
              "y": 0.0049,
              "z": 0.6289
            }
          },
          {
            "elSymbol": "C",
            "p3d": {
              "x": -6.0E-4,
              "y": 0.0016,
              "z": 2.5609
            }
          },
          {
            "elSymbol": "O",
            "p3d": {
              "x": 0.0025,
              "y": -0.0041,
              "z": 3.6974
            }
          },
          {
            "elSymbol": "Du",
            "p3d": {
              "x": -0.007,
              "y": 1.0013,
              "z": 0.6372
            }
          },
          {
            "elSymbol": "Du",
            "p3d": {
              "x": -0.0014,
              "y": 0.9902,
              "z": 2.5698
            }
          }
        ],
        "bonds": [
          {
            "atomIds": [
              1,
              2
            ],
            "bo": "TRIPLE"
          },
          {
            "atomIds": [
              0,
              1
            ],
            "bo": "SINGLE"
          },
          {
            "atomIds": [
              3,
              0
            ],
            "bo": "SINGLE"
          },
          {
            "atomIds": [
              4,
              1
            ],
            "bo": "SINGLE"
          }
        ]
      },
      "vertexId": 72,
      "buildingBlockId": 0,
      "buildingBlockType": "SCAFFOLD",
      "isRCV": false,
      "properties": {
        "ATTACHMENT_POINTS": "1#Xlig:0:SINGLE:-2.3339%-0.0087%0.8172,Xlig:0:SINGLE:2.3360%-0.0005%0.8290,scaff:0:SINGLE:-0.0095%0.0046%-1.7113 "
      },
      "uniquefyingPropertyKeys": [],
      "allowedMutationTypes": [
        "DELETE",
        "EXTEND",
        "CHANGEBRANCH",
        "CHANGELINK",
        "ADDLINK",
        "DELETELINK",
        "DELETECHAIN"
      ],
      "vertexType": "MolecularFragment"
    },
    {
      "lstAPs": [
        {
          "id": 432492,
          "atomPositionNumber": 0,
          "atomPositionNumberInMol": 5,
          "apClass": {
            "rule": "Xlig",
            "subClass": 1,
            "bndTyp": "SINGLE"
          },
          "dirVec": {
            "x": -0.0053,
            "y": -0.0027,
            "z": 0.63
          }
        }
      ],
      "lstSymAPs": [],
      "mol": {
        "atoms": [
          {
            "elSymbol": "Cl",
            "p3d": {
              "x": 2.3243,
              "y": -0.0063,
              "z": 0.8189
            }
          }
        ],
        "bonds": []
      },
      "vertexId": 82,
      "buildingBlockId": 66,
      "buildingBlockType": "FRAGMENT",
      "isRCV": false,
      "properties": {
        "ATTACHMENT_POINTS": "1#Xlig:1:SINGLE:-0.0053%-0.0027%0.6300 "
      },
      "uniquefyingPropertyKeys": [],
      "allowedMutationTypes": [
        "DELETE",
        "EXTEND",
        "CHANGEBRANCH",
        "CHANGELINK",
        "ADDLINK",
        "DELETELINK",
        "DELETECHAIN"
      ],
      "vertexType": "MolecularFragment"
    },
    {
      "lstAPs": [
        {
          "id": 432493,
          "atomPositionNumber": 0,
          "atomPositionNumberInMol": 6,
          "apClass": {
            "rule": "LPyrrolidinylideneSubNS",
            "subClass": 0,
            "bndTyp": "SINGLE"
          },
          "dirVec": {
            "x": 1.1368,
            "y": 2.9892,
            "z": 6.3678
          }
        },
        {
          "id": 432494,
          "atomPositionNumber": 1,
          "atomPositionNumberInMol": 7,
          "apClass": {
            "rule": "MPyrrolidinylidene",
            "subClass": 1,
            "bndTyp": "SINGLE"
          },
          "dirVec": {
            "x": 1.1351,
            "y": 5.0475,
            "z": 3.8064
          }
        },
        {
          "id": 432495,
          "atomPositionNumber": 2,
          "atomPositionNumberInMol": 8,
          "apClass": {
            "rule": "LPyrrolidinylideneSubCGammaL",
            "subClass": 0,
            "bndTyp": "SINGLE"
          },
          "dirVec": {
            "x": -1.6533,
            "y": 3.6844,
            "z": 2.5584
          }
        },
        {
          "id": 432496,
          "atomPositionNumber": 2,
          "atomPositionNumberInMol": 8,
          "apClass": {
            "rule": "LPyrrolidinylideneSubCGammaS",
            "subClass": 0,
            "bndTyp": "SINGLE"
          },
          "dirVec": {
            "x": 0.2707,
            "y": 2.2373,
            "z": 1.9364
          }
        },
        {
          "id": 432497,
          "atomPositionNumber": 4,
          "atomPositionNumberInMol": 10,
          "apClass": {
            "rule": "LPyrrolidinylideneSubCAlpha",
            "subClass": 0,
            "bndTyp": "SINGLE"
          },
          "dirVec": {
            "x": -1.0798,
            "y": 0.961,
            "z": 6.3715
          }
        },
        {
          "id": 432498,
          "atomPositionNumber": 4,
          "atomPositionNumberInMol": 10,
          "apClass": {
            "rule": "LPyrrolidinylideneSubCAlpha",
            "subClass": 0,
            "bndTyp": "SINGLE"
          },
          "dirVec": {
            "x": 0.6851,
            "y": 0.1558,
            "z": 4.841
          }
        }
      ],
      "lstSymAPs": [
        {
          "symIds": [
            4,
            5
          ]
        }
      ],
      "mol": {
        "atoms": [
          {
            "elSymbol": "N",
            "p3d": {
              "x": 0.4064,
              "y": 2.6218,
              "z": 5.1898
            }
          },
          {
            "elSymbol": "C",
            "p3d": {
              "x": 0.2992,
              "y": 3.4375,
              "z": 4.1309
            }
          },
          {
            "elSymbol": "C",
            "p3d": {
              "x": -0.589,
              "y": 2.7266,
              "z": 3.1026
            }
          },
          {
            "elSymbol": "C",
            "p3d": {
              "x": -1.2268,
              "y": 1.5592,
              "z": 3.8965
            }
          },
          {
            "elSymbol": "C",
            "p3d": {
              "x": -0.3002,
              "y": 1.286,
              "z": 5.1014
            }
          },
          {
            "elSymbol": "H",
            "p3d": {
              "x": -2.2272,
              "y": 1.8381,
              "z": 4.2502
            }
          },
          {
            "elSymbol": "H",
            "p3d": {
              "x": -1.3141,
              "y": 0.6862,
              "z": 3.272
            }
          }
        ],
        "bonds": [
          {
            "atomIds": [
              0,
              1
            ],
            "bo": "SINGLE"
          },
          {
            "atomIds": [
              2,
              1
            ],
            "bo": "SINGLE"
          },
          {
            "atomIds": [
              3,
              2
            ],
            "bo": "SINGLE"
          },
          {
            "atomIds": [
              4,
              0
            ],
            "bo": "SINGLE"
          },
          {
            "atomIds": [
              5,
              3
            ],
            "bo": "SINGLE"
          },
          {
            "atomIds": [
              6,
              3
            ],
            "bo": "SINGLE"
          },
          {
            "atomIds": [
              3,
              4
            ],
            "bo": "SINGLE"
          }
        ]
      },
      "vertexId": 92,
      "buildingBlockId": 13,
      "buildingBlockType": "FRAGMENT",
      "isRCV": false,
      "properties": {
        "ATTACHMENT_POINTS": "1#LPyrrolidinylideneSubNS:0:SINGLE:1.1368%2.9892%6.3678 2#MPyrrolidinylidene:1:SINGLE:1.1351%5.0475%3.8064 3#LPyrrolidinylideneSubCGammaL:0:SINGLE:-1.6533%3.6844%2.5584,LPyrrolidinylideneSubCGammaS:0:SINGLE:0.2707%2.2373%1.9364 5#LPyrrolidinylideneSubCAlpha:0:SINGLE:-1.0798%0.9610%6.3715,LPyrrolidinylideneSubCAlpha:0:SINGLE:0.6851%0.1558%4.8410 "
      },
      "uniquefyingPropertyKeys": [],
      "allowedMutationTypes": [
        "DELETE",
        "EXTEND",
        "CHANGEBRANCH",
        "CHANGELINK",
        "ADDLINK",
        "DELETELINK",
        "DELETECHAIN"
      ],
      "vertexType": "MolecularFragment"
    },
    {
      "lstAPs": [
        {
          "id": 432499,
          "atomPositionNumber": 0,
          "atomPositionNumberInMol": 49,
          "apClass": {
            "rule": "Xlig",
            "subClass": 1,
            "bndTyp": "SINGLE"
          },
          "dirVec": {
            "x": -0.0053,
            "y": -0.0027,
            "z": 0.63
          }
        }
      ],
      "lstSymAPs": [],
      "mol": {
        "atoms": [
          {
            "elSymbol": "Cl",
            "p3d": {
              "x": 2.3243,
              "y": -0.0063,
              "z": 0.8189
            }
          }
        ],
        "bonds": []
      },
      "vertexId": 88,
      "buildingBlockId": 66,
      "buildingBlockType": "FRAGMENT",
      "isRCV": false,
      "properties": {
        "ATTACHMENT_POINTS": "1#Xlig:1:SINGLE:-0.0053%-0.0027%0.6300 "
      },
      "uniquefyingPropertyKeys": [],
      "allowedMutationTypes": [
        "DELETE",
        "EXTEND",
        "CHANGEBRANCH",
        "CHANGELINK",
        "ADDLINK",
        "DELETELINK",
        "DELETECHAIN"
      ],
      "vertexType": "MolecularFragment"
    },
    {
      "lstAPs": [
        {
          "id": 432548,
          "atomPositionNumber": 0,
          "atomPositionNumberInMol": 13,
          "apClass": {
            "rule": "LPyrrolidinylideneSubCAlpha",
            "subClass": 1,
            "bndTyp": "SINGLE"
          },
          "dirVec": {
            "x": 10.5718,
            "y": 9.5818,
            "z": 19.5273
          }
        }
      ],
      "lstSymAPs": [],
      "mol": {
        "atoms": [
          {
            "elSymbol": "C",
            "p3d": {
              "x": 11.7977,
              "y": 8.6986,
              "z": 19.2649
            }
          },
          {
            "elSymbol": "H",
            "p3d": {
              "x": 11.6263,
              "y": 8.0849,
              "z": 18.3966
            }
          },
          {
            "elSymbol": "H",
            "p3d": {
              "x": 11.9867,
              "y": 8.0758,
              "z": 20.122
            }
          },
          {
            "elSymbol": "H",
            "p3d": {
              "x": 12.6717,
              "y": 9.3283,
              "z": 19.0876
            }
          }
        ],
        "bonds": [
          {
            "atomIds": [
              1,
              0
            ],
            "bo": "SINGLE"
          },
          {
            "atomIds": [
              2,
              0
            ],
            "bo": "SINGLE"
          },
          {
            "atomIds": [
              3,
              0
            ],
            "bo": "SINGLE"
          }
        ]
      },
      "vertexId": 331980,
      "buildingBlockId": 27,
      "buildingBlockType": "FRAGMENT",
      "isRCV": false,
      "properties": {
        "ATTACHMENT_POINTS": "1#LPyrrolidinylideneSubCAlpha:1:SINGLE:10.5718%9.5818%19.5273 "
      },
      "uniquefyingPropertyKeys": [],
      "allowedMutationTypes": [
        "DELETE",
        "EXTEND",
        "CHANGEBRANCH",
        "CHANGELINK",
        "ADDLINK",
        "DELETELINK",
        "DELETECHAIN"
      ],
      "vertexType": "MolecularFragment"
    },
    {
      "lstAPs": [
        {
          "id": 432549,
          "atomPositionNumber": 0,
          "atomPositionNumberInMol": 17,
          "apClass": {
            "rule": "SubArS",
            "subClass": 1,
            "bndTyp": "SINGLE"
          },
          "dirVec": {
            "x": 0.2973,
            "y": 0.3873,
            "z": -0.6389
          }
        }
      ],
      "lstSymAPs": [],
      "mol": {
        "atoms": [
          {
            "elSymbol": "C",
            "p3d": {
              "x": 1.6995,
              "y": 0.5593,
              "z": -1.2083
            }
          },
          {
            "elSymbol": "C",
            "p3d": {
              "x": 4.2563,
              "y": 0.8754,
              "z": -2.2592
            }
          },
          {
            "elSymbol": "C",
            "p3d": {
              "x": 2.3334,
              "y": 1.79,
              "z": -1.1338
            }
          },
          {
            "elSymbol": "C",
            "p3d": {
              "x": 2.3422,
              "y": -0.5107,
              "z": -1.8125
            }
          },
          {
            "elSymbol": "C",
            "p3d": {
              "x": 3.612,
              "y": -0.3527,
              "z": -2.3321
            }
          },
          {
            "elSymbol": "C",
            "p3d": {
              "x": 3.6062,
              "y": 1.9513,
              "z": -1.6526
            }
          },
          {
            "elSymbol": "H",
            "p3d": {
              "x": 1.833,
              "y": 2.6461,
              "z": -0.6488
            }
          },
          {
            "elSymbol": "H",
            "p3d": {
              "x": 1.8361,
              "y": -1.4773,
              "z": -1.887
            }
          },
          {
            "elSymbol": "H",
            "p3d": {
              "x": 4.115,
              "y": -1.2043,
              "z": -2.8152
            }
          },
          {
            "elSymbol": "H",
            "p3d": {
              "x": 4.1097,
              "y": 2.9214,
              "z": -1.5842
            }
          },
          {
            "elSymbol": "H",
            "p3d": {
              "x": 5.2498,
              "y": 0.9926,
              "z": -2.665
            }
          }
        ],
        "bonds": [
          {
            "atomIds": [
              0,
              3
            ],
            "bo": "SINGLE"
          },
          {
            "atomIds": [
              3,
              4
            ],
            "bo": "DOUBLE"
          },
          {
            "atomIds": [
              1,
              4
            ],
            "bo": "SINGLE"
          },
          {
            "atomIds": [
              1,
              5
            ],
            "bo": "DOUBLE"
          },
          {
            "atomIds": [
              2,
              5
            ],
            "bo": "SINGLE"
          },
          {
            "atomIds": [
              0,
              2
            ],
            "bo": "DOUBLE"
          },
          {
            "atomIds": [
              4,
              8
            ],
            "bo": "SINGLE"
          },
          {
            "atomIds": [
              5,
              9
            ],
            "bo": "SINGLE"
          },
          {
            "atomIds": [
              1,
              10
            ],
            "bo": "SINGLE"
          },
          {
            "atomIds": [
              2,
              6
            ],
            "bo": "SINGLE"
          },
          {
            "atomIds": [
              3,
              7
            ],
            "bo": "SINGLE"
          }
        ]
      },
      "vertexId": 331634,
      "buildingBlockId": 35,
      "buildingBlockType": "FRAGMENT",
      "isRCV": false,
      "properties": {
        "ATTACHMENT_POINTS": "1#SubArS:1:SINGLE:0.2973%0.3873%-0.6389 "
      },
      "uniquefyingPropertyKeys": [],
      "allowedMutationTypes": [
        "DELETE",
        "EXTEND",
        "CHANGEBRANCH",
        "CHANGELINK",
        "ADDLINK",
        "DELETELINK",
        "DELETECHAIN"
      ],
      "vertexType": "MolecularFragment"
    },
    {
      "lstAPs": [
        {
          "id": 432550,
          "atomPositionNumber": 0,
          "atomPositionNumberInMol": 28,
          "apClass": {
            "rule": "LPyrrolidinylideneSubCGammaL",
            "subClass": 1,
            "bndTyp": "SINGLE"
          },
          "dirVec": {
            "x": 6.4918,
            "y": 8.5782,
            "z": 8.732
          }
        }
      ],
      "lstSymAPs": [],
      "mol": {
        "atoms": [
          {
            "elSymbol": "C",
            "p3d": {
              "x": 6.1515,
              "y": 7.431,
              "z": 7.8624
            }
          },
          {
            "elSymbol": "H",
            "p3d": {
              "x": 5.7659,
              "y": 6.6535,
              "z": 8.5409
            }
          },
          {
            "elSymbol": "C",
            "p3d": {
              "x": 7.3936,
              "y": 6.8328,
              "z": 7.1732
            }
          },
          {
            "elSymbol": "H",
            "p3d": {
              "x": 8.1547,
              "y": 6.6129,
              "z": 7.9262
            }
          },
          {
            "elSymbol": "H",
            "p3d": {
              "x": 7.786,
              "y": 7.5402,
              "z": 6.4553
            }
          },
          {
            "elSymbol": "H",
            "p3d": {
              "x": 7.1104,
              "y": 5.9177,
              "z": 6.6623
            }
          },
          {
            "elSymbol": "C",
            "p3d": {
              "x": 5.0295,
              "y": 7.7745,
              "z": 6.8997
            }
          },
          {
            "elSymbol": "H",
            "p3d": {
              "x": 4.1785,
              "y": 8.1944,
              "z": 7.4536
            }
          },
          {
            "elSymbol": "H",
            "p3d": {
              "x": 4.7068,
              "y": 6.8593,
              "z": 6.3735
            }
          },
          {
            "elSymbol": "H",
            "p3d": {
              "x": 5.3864,
              "y": 8.4998,
              "z": 6.1702
            }
          }
        ],
        "bonds": [
          {
            "atomIds": [
              1,
              0
            ],
            "bo": "SINGLE"
          },
          {
            "atomIds": [
              2,
              0
            ],
            "bo": "SINGLE"
          },
          {
            "atomIds": [
              3,
              2
            ],
            "bo": "SINGLE"
          },
          {
            "atomIds": [
              4,
              2
            ],
            "bo": "SINGLE"
          },
          {
            "atomIds": [
              5,
              2
            ],
            "bo": "SINGLE"
          },
          {
            "atomIds": [
              6,
              0
            ],
            "bo": "SINGLE"
          },
          {
            "atomIds": [
              7,
              6
            ],
            "bo": "SINGLE"
          },
          {
            "atomIds": [
              8,
              6
            ],
            "bo": "SINGLE"
          },
          {
            "atomIds": [
              9,
              6
            ],
            "bo": "SINGLE"
          }
        ]
      },
      "vertexId": 331643,
      "buildingBlockId": 24,
      "buildingBlockType": "FRAGMENT",
      "isRCV": false,
      "properties": {
        "ATTACHMENT_POINTS": "1#LPyrrolidinylideneSubCGammaL:1:SINGLE:6.4918%8.5782%8.7320 "
      },
      "uniquefyingPropertyKeys": [],
      "allowedMutationTypes": [
        "DELETE",
        "EXTEND",
        "CHANGEBRANCH",
        "CHANGELINK",
        "ADDLINK",
        "DELETELINK",
        "DELETECHAIN"
      ],
      "vertexType": "MolecularFragment"
    },
    {
      "lstAPs": [
        {
          "id": 432551,
          "atomPositionNumber": 0,
          "atomPositionNumberInMol": 38,
          "apClass": {
            "rule": "LPyrrolidinylideneSubCAlpha",
            "subClass": 1,
            "bndTyp": "SINGLE"
          },
          "dirVec": {
            "x": 10.5718,
            "y": 9.5818,
            "z": 19.5273
          }
        }
      ],
      "lstSymAPs": [],
      "mol": {
        "atoms": [
          {
            "elSymbol": "C",
            "p3d": {
              "x": 11.7977,
              "y": 8.6986,
              "z": 19.2649
            }
          },
          {
            "elSymbol": "H",
            "p3d": {
              "x": 11.6263,
              "y": 8.0849,
              "z": 18.3966
            }
          },
          {
            "elSymbol": "H",
            "p3d": {
              "x": 11.9867,
              "y": 8.0758,
              "z": 20.122
            }
          },
          {
            "elSymbol": "H",
            "p3d": {
              "x": 12.6717,
              "y": 9.3283,
              "z": 19.0876
            }
          }
        ],
        "bonds": [
          {
            "atomIds": [
              1,
              0
            ],
            "bo": "SINGLE"
          },
          {
            "atomIds": [
              2,
              0
            ],
            "bo": "SINGLE"
          },
          {
            "atomIds": [
              3,
              0
            ],
            "bo": "SINGLE"
          }
        ]
      },
      "vertexId": 331654,
      "buildingBlockId": 27,
      "buildingBlockType": "FRAGMENT",
      "isRCV": false,
      "properties": {
        "ATTACHMENT_POINTS": "1#LPyrrolidinylideneSubCAlpha:1:SINGLE:10.5718%9.5818%19.5273 "
      },
      "uniquefyingPropertyKeys": [],
      "allowedMutationTypes": [
        "DELETE",
        "EXTEND",
        "CHANGEBRANCH",
        "CHANGELINK",
        "ADDLINK",
        "DELETELINK",
        "DELETECHAIN"
      ],
      "vertexType": "MolecularFragment"
    },
    {
      "lstAPs": [
        {
          "id": 432552,
          "atomPositionNumber": 0,
          "atomPositionNumberInMol": 42,
          "apClass": {
            "rule": "LPyrrolidinylideneSubCGammaS",
            "subClass": 1,
            "bndTyp": "SINGLE"
          },
          "dirVec": {
            "x": 2.2209,
            "y": 11.3247,
            "z": 13.404
          }
        }
      ],
      "lstSymAPs": [],
      "mol": {
        "atoms": [
          {
            "elSymbol": "C",
            "p3d": {
              "x": 2.4548,
              "y": 10.2992,
              "z": 14.5411
            }
          },
          {
            "elSymbol": "H",
            "p3d": {
              "x": 3.4157,
              "y": 10.5073,
              "z": 14.981
            }
          },
          {
            "elSymbol": "H",
            "p3d": {
              "x": 1.6835,
              "y": 10.432,
              "z": 15.3041
            }
          },
          {
            "elSymbol": "C",
            "p3d": {
              "x": 2.4332,
              "y": 8.8302,
              "z": 14.0744
            }
          },
          {
            "elSymbol": "H",
            "p3d": {
              "x": 3.2041,
              "y": 8.6763,
              "z": 13.3353
            }
          },
          {
            "elSymbol": "H",
            "p3d": {
              "x": 1.4458,
              "y": 8.6074,
              "z": 13.6521
            }
          },
          {
            "elSymbol": "H",
            "p3d": {
              "x": 2.6045,
              "y": 8.1976,
              "z": 14.9512
            }
          }
        ],
        "bonds": [
          {
            "atomIds": [
              1,
              0
            ],
            "bo": "SINGLE"
          },
          {
            "atomIds": [
              2,
              0
            ],
            "bo": "SINGLE"
          },
          {
            "atomIds": [
              3,
              0
            ],
            "bo": "SINGLE"
          },
          {
            "atomIds": [
              4,
              3
            ],
            "bo": "SINGLE"
          },
          {
            "atomIds": [
              5,
              3
            ],
            "bo": "SINGLE"
          },
          {
            "atomIds": [
              6,
              3
            ],
            "bo": "SINGLE"
          }
        ]
      },
      "vertexId": 331650,
      "buildingBlockId": 23,
      "buildingBlockType": "FRAGMENT",
      "isRCV": false,
      "properties": {
        "ATTACHMENT_POINTS": "1#LPyrrolidinylideneSubCGammaS:1:SINGLE:2.2209%11.3247%13.4040 "
      },
      "uniquefyingPropertyKeys": [],
      "allowedMutationTypes": [
        "DELETE",
        "EXTEND",
        "CHANGEBRANCH",
        "CHANGELINK",
        "ADDLINK",
        "DELETELINK",
        "DELETECHAIN"
      ],
      "vertexType": "MolecularFragment"
    }
  ],
  "gEdges": [
    {
      "srcAPID": 432489,
      "trgAPID": 432492,
      "bondType": "SINGLE"
    },
    {
      "srcAPID": 432491,
      "trgAPID": 432494,
      "bondType": "SINGLE"
    },
    {
      "srcAPID": 432490,
      "trgAPID": 432499,
      "bondType": "SINGLE"
    },
    {
      "srcAPID": 432498,
      "trgAPID": 432548,
      "bondType": "SINGLE"
    },
    {
      "srcAPID": 432493,
      "trgAPID": 432549,
      "bondType": "SINGLE"
    },
    {
      "srcAPID": 432495,
      "trgAPID": 432550,
      "bondType": "SINGLE"
    },
    {
      "srcAPID": 432497,
      "trgAPID": 432551,
      "bondType": "SINGLE"
    },
    {
      "srcAPID": 432496,
      "trgAPID": 432552,
      "bondType": "SINGLE"
    }
  ],
  "gRings": [],
  "symVertices": [
    {
      "symIds": [
        331980,
        331654
      ]
    }
  ]
}

> <SMILES>
[Pt](C#O)(Cl)([C]1N(C(C(C1(C([H])(C([H])([H])[H])C([H])([H])[H])C([H])([H])C([H])([H])[H])([H])[H])(C([H])([H])[H])C([H])([H])[H])C=2C(=C(C(=C(C2[H])[H])[H])[H])[H])Cl

$$$$
