M00006504
  CDK     04222211033D

 33 33  0  0  0  0  0  0  0  0999 V2000
    2.6985   -0.5471   -0.7327 Pt  0  0  0  0  0  0  0  0  0  0  0  0
    4.6164   -0.4623   -0.8879 C   0  0  0  0  0  0  0  0  0  0  0  0
    5.7556   -0.3875   -0.9483 O   0  0  0  0  0  0  0  0  0  0  0  0
    2.5401   -1.9603   -2.1454 C   0  0  0  0  0  0  0  0  0  0  0  0
    2.4266   -2.7702   -2.9622 N   0  0  0  0  0  0  0  0  0  0  0  0
    0.0403    0.0179    0.5793 N   0  0  0  0  0  0  0  0  0  0  0  0
   -0.2178   -1.1559   -1.3025 N   0  0  0  0  0  0  0  0  0  0  0  0
    0.6879   -0.5611   -0.4688 C   0  0  2  0  0  0  0  0  0  0  0  0
   -1.4554   -0.1713    0.5161 C   0  0  0  0  0  0  0  0  0  0  0  0
   -1.6196   -0.9851   -0.8155 C   0  0  0  0  0  0  0  0  0  0  0  0
   -2.2286   -0.4416   -1.5670 H   0  0  0  0  0  0  0  0  0  0  0  0
   -2.0951   -1.9735   -0.6462 H   0  0  0  0  0  0  0  0  0  0  0  0
   -1.2815   -2.3092    1.9471 C   0  0  0  0  0  0  0  0  0  0  0  0
   -1.9494   -0.9536    1.7534 C   0  0  0  0  0  0  0  0  0  0  0  0
   -0.1955   -2.2164    2.0831 H   0  0  0  0  0  0  0  0  0  0  0  0
   -1.6731   -2.8152    2.8389 H   0  0  0  0  0  0  0  0  0  0  0  0
   -1.4427   -2.9816    1.0962 H   0  0  0  0  0  0  0  0  0  0  0  0
   -3.0479   -1.0881    1.6773 H   0  0  0  0  0  0  0  0  0  0  0  0
   -1.7900   -0.3387    2.6643 H   0  0  0  0  0  0  0  0  0  0  0  0
   -1.7135    2.0984   -0.6795 C   0  0  0  0  0  0  0  0  0  0  0  0
   -2.1668    1.1992    0.4641 C   0  0  0  0  0  0  0  0  0  0  0  0
   -1.8834    1.6426   -1.6622 H   0  0  0  0  0  0  0  0  0  0  0  0
   -2.2559    3.0525   -0.6659 H   0  0  0  0  0  0  0  0  0  0  0  0
   -0.6430    2.3356   -0.6133 H   0  0  0  0  0  0  0  0  0  0  0  0
   -2.0096    1.7309    1.4263 H   0  0  0  0  0  0  0  0  0  0  0  0
   -3.2613    1.0324    0.3956 H   0  0  0  0  0  0  0  0  0  0  0  0
   -0.0021   -1.6641   -2.1525 H   0  0  0  0  0  0  0  0  0  0  0  0
    0.4963    0.5330    1.3348 H   0  0  0  0  0  0  0  0  0  0  0  0
    2.9054    1.0949    0.9043 S   0  0  0  0  0  0  0  0  0  0  0  0
    2.7182    2.5320   -0.1916 C   0  0  0  0  0  0  0  0  0  0  0  0
    1.9427    3.1976    0.2010 H   0  0  0  0  0  0  0  0  0  0  0  0
    2.4437    2.2254   -1.2070 H   0  0  0  0  0  0  0  0  0  0  0  0
    3.6606    3.0905   -0.2333 H   0  0  0  0  0  0  0  0  0  0  0  0
  2  3  3  0  0  0  0
  1  2  1  0  0  0  0
  4  5  3  0  0  0  0
  1  4  1  0  0  0  0
  6  8  1  0  0  0  0
  7  8  1  0  0  0  0
  9  6  1  0  0  0  0
  9 10  1  0  0  0  0
 10  7  1  0  0  0  0
 11 10  1  0  0  0  0
 12 10  1  0  0  0  0
  1  8  1  0  0  0  0
 13 14  1  0  0  0  0
 13 15  1  0  0  0  0
 13 16  1  0  0  0  0
 13 17  1  0  0  0  0
 14 18  1  0  0  0  0
 14 19  1  0  0  0  0
  9 14  1  0  0  0  0
 20 21  1  0  0  0  0
 20 22  1  0  0  0  0
 20 23  1  0  0  0  0
 20 24  1  0  0  0  0
 21 25  1  0  0  0  0
 21 26  1  0  0  0  0
  9 21  1  0  0  0  0
  7 27  1  0  0  0  0
  6 28  1  0  0  0  0
 30 31  1  0  0  0  0
 30 32  1  0  0  0  0
 30 33  1  0  0  0  0
 29 30  1  0  0  0  0
  1 29  1  0  0  0  0
M  END
> <PM6_ENERGY>
9.671

> <UID>
XAJDKFVMSFLIPX-ZKORJCFYNA-M

> <FITNESS>
1.14325

> <GCODE>
7335

> <GraphENC>
7335 72_1_0,81_66_1,95_17_1,85_64_1,147926_32_1,147308_32_1,147927_1_2,147304_1_2, 72_0_81_0_SINGLE_Xlig:0_Xlig:1,72_2_95_2_SINGLE_scaff:0_MImidazolidinylidene:1,72_1_85_0_SINGLE_Xlig:0_Xlig:1,95_4_147926_0_SINGLE_LImidazolidinylideneSubCS:0_SubRS:1,95_3_147308_0_SINGLE_LImidazolidinylideneSubCS:0_SubRS:1,95_1_147927_0_SINGLE_LImidazolidinylideneSubNL:0_hyd:1,95_0_147304_0_SINGLE_LImidazolidinylideneSubNL:0_hyd:1, SymmetricSet [symIds=[147927, 147304]] SymmetricSet [symIds=[147926, 147308]] 

> <GraphJson>
{
  "graphId": 7335,
  "gVertices": [
    {
      "lstAPs": [
        {
          "id": 193610,
          "atomPositionNumber": 0,
          "atomPositionNumberInMol": 0,
          "apClass": {
            "rule": "Xlig",
            "subClass": 0,
            "bndTyp": "SINGLE"
          },
          "dirVec": {
            "x": -2.3339,
            "y": -0.0087,
            "z": 0.8172
          }
        },
        {
          "id": 193611,
          "atomPositionNumber": 0,
          "atomPositionNumberInMol": 0,
          "apClass": {
            "rule": "Xlig",
            "subClass": 0,
            "bndTyp": "SINGLE"
          },
          "dirVec": {
            "x": 2.336,
            "y": -5.0E-4,
            "z": 0.829
          }
        },
        {
          "id": 193612,
          "atomPositionNumber": 0,
          "atomPositionNumberInMol": 0,
          "apClass": {
            "rule": "scaff",
            "subClass": 0,
            "bndTyp": "SINGLE"
          },
          "dirVec": {
            "x": -0.0095,
            "y": 0.0046,
            "z": -1.7113
          }
        }
      ],
      "lstSymAPs": [
        {
          "symIds": [
            0,
            1
          ]
        }
      ],
      "mol": {
        "atoms": [
          {
            "elSymbol": "Pt",
            "p3d": {
              "x": -0.0098,
              "y": 0.0049,
              "z": 0.6289
            }
          },
          {
            "elSymbol": "C",
            "p3d": {
              "x": -6.0E-4,
              "y": 0.0016,
              "z": 2.5609
            }
          },
          {
            "elSymbol": "O",
            "p3d": {
              "x": 0.0025,
              "y": -0.0041,
              "z": 3.6974
            }
          },
          {
            "elSymbol": "Du",
            "p3d": {
              "x": -0.007,
              "y": 1.0013,
              "z": 0.6372
            }
          },
          {
            "elSymbol": "Du",
            "p3d": {
              "x": -0.0014,
              "y": 0.9902,
              "z": 2.5698
            }
          }
        ],
        "bonds": [
          {
            "atomIds": [
              1,
              2
            ],
            "bo": "TRIPLE"
          },
          {
            "atomIds": [
              0,
              1
            ],
            "bo": "SINGLE"
          },
          {
            "atomIds": [
              3,
              0
            ],
            "bo": "SINGLE"
          },
          {
            "atomIds": [
              4,
              1
            ],
            "bo": "SINGLE"
          }
        ]
      },
      "vertexId": 72,
      "buildingBlockId": 0,
      "buildingBlockType": "SCAFFOLD",
      "isRCV": false,
      "properties": {
        "ATTACHMENT_POINTS": "1#Xlig:0:SINGLE:-2.3339%-0.0087%0.8172,Xlig:0:SINGLE:2.3360%-0.0005%0.8290,scaff:0:SINGLE:-0.0095%0.0046%-1.7113 "
      },
      "uniquefyingPropertyKeys": [],
      "allowedMutationTypes": [
        "DELETE",
        "EXTEND",
        "CHANGEBRANCH",
        "CHANGELINK",
        "ADDLINK",
        "DELETELINK",
        "DELETECHAIN"
      ],
      "vertexType": "MolecularFragment"
    },
    {
      "lstAPs": [
        {
          "id": 193613,
          "atomPositionNumber": 0,
          "atomPositionNumberInMol": 5,
          "apClass": {
            "rule": "Xlig",
            "subClass": 1,
            "bndTyp": "SINGLE"
          },
          "dirVec": {
            "x": 0.0192,
            "y": -0.0048,
            "z": -0.5645
          }
        }
      ],
      "lstSymAPs": [],
      "mol": {
        "atoms": [
          {
            "elSymbol": "C",
            "p3d": {
              "x": -1.967,
              "y": -0.0075,
              "z": -0.4937
            }
          },
          {
            "elSymbol": "N",
            "p3d": {
              "x": -3.1263,
              "y": -0.0054,
              "z": -0.4354
            }
          },
          {
            "elSymbol": "Du",
            "p3d": {
              "x": -1.9744,
              "y": 0.9926,
              "z": -0.5036
            }
          }
        ],
        "bonds": [
          {
            "atomIds": [
              0,
              1
            ],
            "bo": "TRIPLE"
          },
          {
            "atomIds": [
              2,
              0
            ],
            "bo": "SINGLE"
          }
        ]
      },
      "vertexId": 81,
      "buildingBlockId": 65,
      "buildingBlockType": "FRAGMENT",
      "isRCV": false,
      "properties": {
        "ATTACHMENT_POINTS": "1#Xlig:1:SINGLE:0.0192%-0.0048%-0.5645 "
      },
      "uniquefyingPropertyKeys": [],
      "allowedMutationTypes": [
        "DELETE",
        "EXTEND",
        "CHANGEBRANCH",
        "CHANGELINK",
        "ADDLINK",
        "DELETELINK",
        "DELETECHAIN"
      ],
      "vertexType": "MolecularFragment"
    },
    {
      "lstAPs": [
        {
          "id": 193614,
          "atomPositionNumber": 0,
          "atomPositionNumberInMol": 8,
          "apClass": {
            "rule": "LImidazolidinylideneSubNL",
            "subClass": 0,
            "bndTyp": "SINGLE"
          },
          "dirVec": {
            "x": 7.7897,
            "y": 6.0821,
            "z": 4.7152
          }
        },
        {
          "id": 193615,
          "atomPositionNumber": 1,
          "atomPositionNumberInMol": 9,
          "apClass": {
            "rule": "LImidazolidinylideneSubNL",
            "subClass": 0,
            "bndTyp": "SINGLE"
          },
          "dirVec": {
            "x": 9.2442,
            "y": 7.4469,
            "z": 0.1412
          }
        },
        {
          "id": 193616,
          "atomPositionNumber": 2,
          "atomPositionNumberInMol": 10,
          "apClass": {
            "rule": "MImidazolidinylidene",
            "subClass": 1,
            "bndTyp": "SINGLE"
          },
          "dirVec": {
            "x": 7.3678,
            "y": 8.8196,
            "z": 2.9474
          }
        },
        {
          "id": 193617,
          "atomPositionNumber": 3,
          "atomPositionNumberInMol": 11,
          "apClass": {
            "rule": "LImidazolidinylideneSubCS",
            "subClass": 0,
            "bndTyp": "SINGLE"
          },
          "dirVec": {
            "x": 8.0114,
            "y": 3.5478,
            "z": 2.786
          }
        },
        {
          "id": 193618,
          "atomPositionNumber": 3,
          "atomPositionNumberInMol": 11,
          "apClass": {
            "rule": "LImidazolidinylideneSubCS",
            "subClass": 0,
            "bndTyp": "SINGLE"
          },
          "dirVec": {
            "x": 10.1821,
            "y": 4.5337,
            "z": 3.5842
          }
        }
      ],
      "lstSymAPs": [
        {
          "symIds": [
            0,
            1
          ]
        },
        {
          "symIds": [
            3,
            4
          ]
        }
      ],
      "mol": {
        "atoms": [
          {
            "elSymbol": "N",
            "p3d": {
              "x": 8.1682,
              "y": 5.9859,
              "z": 3.3103
            }
          },
          {
            "elSymbol": "N",
            "p3d": {
              "x": 8.7358,
              "y": 6.6342,
              "z": 1.2983
            }
          },
          {
            "elSymbol": "C",
            "p3d": {
              "x": 8.1698,
              "y": 7.0264,
              "z": 2.4525
            }
          },
          {
            "elSymbol": "C",
            "p3d": {
              "x": 8.8997,
              "y": 4.8098,
              "z": 2.7919
            }
          },
          {
            "elSymbol": "C",
            "p3d": {
              "x": 9.1818,
              "y": 5.2321,
              "z": 1.3562
            }
          },
          {
            "elSymbol": "H",
            "p3d": {
              "x": 8.6243,
              "y": 4.6089,
              "z": 0.6707
            }
          },
          {
            "elSymbol": "H",
            "p3d": {
              "x": 10.2262,
              "y": 5.1361,
              "z": 1.0989
            }
          }
        ],
        "bonds": [
          {
            "atomIds": [
              0,
              2
            ],
            "bo": "SINGLE"
          },
          {
            "atomIds": [
              1,
              2
            ],
            "bo": "SINGLE"
          },
          {
            "atomIds": [
              3,
              0
            ],
            "bo": "SINGLE"
          },
          {
            "atomIds": [
              3,
              4
            ],
            "bo": "SINGLE"
          },
          {
            "atomIds": [
              4,
              1
            ],
            "bo": "SINGLE"
          },
          {
            "atomIds": [
              5,
              4
            ],
            "bo": "SINGLE"
          },
          {
            "atomIds": [
              6,
              4
            ],
            "bo": "SINGLE"
          }
        ]
      },
      "vertexId": 95,
      "buildingBlockId": 16,
      "buildingBlockType": "FRAGMENT",
      "isRCV": false,
      "properties": {
        "ATTACHMENT_POINTS": "1#LImidazolidinylideneSubNL:0:SINGLE:7.7897%6.0821%4.7152 2#LImidazolidinylideneSubNL:0:SINGLE:9.2442%7.4469%0.1412 3#MImidazolidinylidene:1:SINGLE:7.3678%8.8196%2.9474 4#LImidazolidinylideneSubCS:0:SINGLE:8.0114%3.5478%2.7860,LImidazolidinylideneSubCS:0:SINGLE:10.1821%4.5337%3.5842 "
      },
      "uniquefyingPropertyKeys": [],
      "allowedMutationTypes": [
        "DELETE",
        "EXTEND",
        "CHANGEBRANCH",
        "CHANGELINK",
        "ADDLINK",
        "DELETELINK",
        "DELETECHAIN"
      ],
      "vertexType": "MolecularFragment"
    },
    {
      "lstAPs": [
        {
          "id": 193619,
          "atomPositionNumber": 0,
          "atomPositionNumberInMol": 31,
          "apClass": {
            "rule": "Xlig",
            "subClass": 1,
            "bndTyp": "SINGLE"
          },
          "dirVec": {
            "x": -0.102,
            "y": 0.0185,
            "z": -1.0265
          }
        }
      ],
      "lstSymAPs": [],
      "mol": {
        "atoms": [
          {
            "elSymbol": "S",
            "p3d": {
              "x": -0.3267,
              "y": 2.3403,
              "z": -1.0022
            }
          },
          {
            "elSymbol": "C",
            "p3d": {
              "x": -0.626,
              "y": 2.4866,
              "z": 0.7805
            }
          },
          {
            "elSymbol": "H",
            "p3d": {
              "x": 0.1766,
              "y": 3.089,
              "z": 1.2414
            }
          },
          {
            "elSymbol": "H",
            "p3d": {
              "x": -0.651,
              "y": 1.5065,
              "z": 1.2643
            }
          },
          {
            "elSymbol": "H",
            "p3d": {
              "x": -1.5658,
              "y": 2.981,
              "z": 0.9515
            }
          }
        ],
        "bonds": [
          {
            "atomIds": [
              1,
              2
            ],
            "bo": "SINGLE"
          },
          {
            "atomIds": [
              1,
              3
            ],
            "bo": "SINGLE"
          },
          {
            "atomIds": [
              1,
              4
            ],
            "bo": "SINGLE"
          },
          {
            "atomIds": [
              0,
              1
            ],
            "bo": "SINGLE"
          }
        ]
      },
      "vertexId": 85,
      "buildingBlockId": 63,
      "buildingBlockType": "FRAGMENT",
      "isRCV": false,
      "properties": {
        "ATTACHMENT_POINTS": "1#Xlig:1:SINGLE:-0.1020%0.0185%-1.0265 "
      },
      "uniquefyingPropertyKeys": [],
      "allowedMutationTypes": [
        "DELETE",
        "EXTEND",
        "CHANGEBRANCH",
        "CHANGELINK",
        "ADDLINK",
        "DELETELINK",
        "DELETECHAIN"
      ],
      "vertexType": "MolecularFragment"
    },
    {
      "lstAPs": [
        {
          "id": 193662,
          "atomPositionNumber": 1,
          "atomPositionNumberInMol": 16,
          "apClass": {
            "rule": "SubRS",
            "subClass": 1,
            "bndTyp": "SINGLE"
          },
          "dirVec": {
            "x": 0.2985,
            "y": 0.384,
            "z": -0.6258
          }
        }
      ],
      "lstSymAPs": [],
      "mol": {
        "atoms": [
          {
            "elSymbol": "C",
            "p3d": {
              "x": -1.0244,
              "y": -0.2225,
              "z": 1.3991
            }
          },
          {
            "elSymbol": "C",
            "p3d": {
              "x": 0.3973,
              "y": -0.042,
              "z": 0.8195
            }
          },
          {
            "elSymbol": "H",
            "p3d": {
              "x": -1.5635,
              "y": -0.9908,
              "z": 0.8263
            }
          },
          {
            "elSymbol": "H",
            "p3d": {
              "x": -0.941,
              "y": -0.535,
              "z": 2.446
            }
          },
          {
            "elSymbol": "H",
            "p3d": {
              "x": -1.5586,
              "y": 0.7335,
              "z": 1.3382
            }
          },
          {
            "elSymbol": "H",
            "p3d": {
              "x": 0.9335,
              "y": 0.7221,
              "z": 1.4011
            }
          },
          {
            "elSymbol": "H",
            "p3d": {
              "x": 0.927,
              "y": -1.0102,
              "z": 0.9001
            }
          }
        ],
        "bonds": [
          {
            "atomIds": [
              0,
              1
            ],
            "bo": "SINGLE"
          },
          {
            "atomIds": [
              0,
              2
            ],
            "bo": "SINGLE"
          },
          {
            "atomIds": [
              0,
              3
            ],
            "bo": "SINGLE"
          },
          {
            "atomIds": [
              0,
              4
            ],
            "bo": "SINGLE"
          },
          {
            "atomIds": [
              1,
              5
            ],
            "bo": "SINGLE"
          },
          {
            "atomIds": [
              1,
              6
            ],
            "bo": "SINGLE"
          }
        ]
      },
      "vertexId": 147926,
      "buildingBlockId": 31,
      "buildingBlockType": "FRAGMENT",
      "isRCV": false,
      "properties": {
        "ATTACHMENT_POINTS": "2#SubRS:1:SINGLE:0.2985%0.3840%-0.6258 "
      },
      "uniquefyingPropertyKeys": [],
      "allowedMutationTypes": [
        "DELETE",
        "EXTEND",
        "CHANGEBRANCH",
        "CHANGELINK",
        "ADDLINK",
        "DELETELINK",
        "DELETECHAIN"
      ],
      "vertexType": "MolecularFragment"
    },
    {
      "lstAPs": [
        {
          "id": 193663,
          "atomPositionNumber": 1,
          "atomPositionNumberInMol": 23,
          "apClass": {
            "rule": "SubRS",
            "subClass": 1,
            "bndTyp": "SINGLE"
          },
          "dirVec": {
            "x": 0.2985,
            "y": 0.384,
            "z": -0.6258
          }
        }
      ],
      "lstSymAPs": [],
      "mol": {
        "atoms": [
          {
            "elSymbol": "C",
            "p3d": {
              "x": -1.0244,
              "y": -0.2225,
              "z": 1.3991
            }
          },
          {
            "elSymbol": "C",
            "p3d": {
              "x": 0.3973,
              "y": -0.042,
              "z": 0.8195
            }
          },
          {
            "elSymbol": "H",
            "p3d": {
              "x": -1.5635,
              "y": -0.9908,
              "z": 0.8263
            }
          },
          {
            "elSymbol": "H",
            "p3d": {
              "x": -0.941,
              "y": -0.535,
              "z": 2.446
            }
          },
          {
            "elSymbol": "H",
            "p3d": {
              "x": -1.5586,
              "y": 0.7335,
              "z": 1.3382
            }
          },
          {
            "elSymbol": "H",
            "p3d": {
              "x": 0.9335,
              "y": 0.7221,
              "z": 1.4011
            }
          },
          {
            "elSymbol": "H",
            "p3d": {
              "x": 0.927,
              "y": -1.0102,
              "z": 0.9001
            }
          }
        ],
        "bonds": [
          {
            "atomIds": [
              0,
              1
            ],
            "bo": "SINGLE"
          },
          {
            "atomIds": [
              0,
              2
            ],
            "bo": "SINGLE"
          },
          {
            "atomIds": [
              0,
              3
            ],
            "bo": "SINGLE"
          },
          {
            "atomIds": [
              0,
              4
            ],
            "bo": "SINGLE"
          },
          {
            "atomIds": [
              1,
              5
            ],
            "bo": "SINGLE"
          },
          {
            "atomIds": [
              1,
              6
            ],
            "bo": "SINGLE"
          }
        ]
      },
      "vertexId": 147308,
      "buildingBlockId": 31,
      "buildingBlockType": "FRAGMENT",
      "isRCV": false,
      "properties": {
        "ATTACHMENT_POINTS": "2#SubRS:1:SINGLE:0.2985%0.3840%-0.6258 "
      },
      "uniquefyingPropertyKeys": [],
      "allowedMutationTypes": [
        "DELETE",
        "EXTEND",
        "CHANGEBRANCH",
        "CHANGELINK",
        "ADDLINK",
        "DELETELINK",
        "DELETECHAIN"
      ],
      "vertexType": "MolecularFragment"
    },
    {
      "lstAPs": [
        {
          "id": 193664,
          "atomPositionNumber": 0,
          "atomPositionNumberInMol": 29,
          "apClass": {
            "rule": "hyd",
            "subClass": 1,
            "bndTyp": "SINGLE"
          },
          "dirVec": {
            "x": 0.4589,
            "y": -1.751,
            "z": 0.3869
          }
        }
      ],
      "lstSymAPs": [],
      "mol": {
        "atoms": [
          {
            "elSymbol": "H",
            "p3d": {
              "x": 0.1925,
              "y": -2.5024,
              "z": 1.1483
            }
          }
        ],
        "bonds": []
      },
      "vertexId": 147927,
      "buildingBlockId": 0,
      "buildingBlockType": "CAP",
      "isRCV": false,
      "properties": {
        "ATTACHMENT_POINTS": "1#hyd:1:SINGLE:0.4589%-1.7510%0.3869 "
      },
      "uniquefyingPropertyKeys": [],
      "allowedMutationTypes": [
        "DELETE",
        "EXTEND",
        "CHANGEBRANCH",
        "CHANGELINK",
        "ADDLINK",
        "DELETELINK",
        "DELETECHAIN"
      ],
      "vertexType": "MolecularFragment"
    },
    {
      "lstAPs": [
        {
          "id": 193665,
          "atomPositionNumber": 0,
          "atomPositionNumberInMol": 30,
          "apClass": {
            "rule": "hyd",
            "subClass": 1,
            "bndTyp": "SINGLE"
          },
          "dirVec": {
            "x": 0.4589,
            "y": -1.751,
            "z": 0.3869
          }
        }
      ],
      "lstSymAPs": [],
      "mol": {
        "atoms": [
          {
            "elSymbol": "H",
            "p3d": {
              "x": 0.1925,
              "y": -2.5024,
              "z": 1.1483
            }
          }
        ],
        "bonds": []
      },
      "vertexId": 147304,
      "buildingBlockId": 0,
      "buildingBlockType": "CAP",
      "isRCV": false,
      "properties": {
        "ATTACHMENT_POINTS": "1#hyd:1:SINGLE:0.4589%-1.7510%0.3869 "
      },
      "uniquefyingPropertyKeys": [],
      "allowedMutationTypes": [
        "DELETE",
        "EXTEND",
        "CHANGEBRANCH",
        "CHANGELINK",
        "ADDLINK",
        "DELETELINK",
        "DELETECHAIN"
      ],
      "vertexType": "MolecularFragment"
    }
  ],
  "gEdges": [
    {
      "srcAPID": 193610,
      "trgAPID": 193613,
      "bondType": "SINGLE"
    },
    {
      "srcAPID": 193612,
      "trgAPID": 193616,
      "bondType": "SINGLE"
    },
    {
      "srcAPID": 193611,
      "trgAPID": 193619,
      "bondType": "SINGLE"
    },
    {
      "srcAPID": 193618,
      "trgAPID": 193662,
      "bondType": "SINGLE"
    },
    {
      "srcAPID": 193617,
      "trgAPID": 193663,
      "bondType": "SINGLE"
    },
    {
      "srcAPID": 193615,
      "trgAPID": 193664,
      "bondType": "SINGLE"
    },
    {
      "srcAPID": 193614,
      "trgAPID": 193665,
      "bondType": "SINGLE"
    }
  ],
  "gRings": [],
  "symVertices": [
    {
      "symIds": [
        147927,
        147304
      ]
    },
    {
      "symIds": [
        147926,
        147308
      ]
    }
  ]
}

> <SMILES>
[Pt](C#O)(C#N)([C]1N(C(C(N1[H])([H])[H])(C(C([H])([H])[H])([H])[H])C(C([H])([H])[H])([H])[H])[H])SC([H])([H])[H]

$$$$
