M00009035
  CDK     04222211563D

 20 20  0  0  0  0  0  0  0  0999 V2000
   -1.9263    0.0395    0.0780 Pt  0  0  0  0  0  0  0  0  0  0  0  0
   -3.8920    0.0915    0.0393 C   0  0  0  0  0  0  0  0  0  0  0  0
   -5.0313    0.1217    0.0179 O   0  0  0  0  0  0  0  0  0  0  0  0
   -1.8275    2.0207    0.2815 C   0  0  0  0  0  0  0  0  0  0  0  0
   -1.7214    3.1648    0.4012 N   0  0  0  0  0  0  0  0  0  0  0  0
    0.3159   -0.0239    0.1639 P   0  0  0  0  0  0  0  0  0  0  0  0
    1.1967    1.3071   -0.5419 N   0  0  0  0  0  0  0  0  0  0  0  0
    2.1869    0.7707   -1.4212 C   0  0  0  0  0  0  0  0  0  0  0  0
    2.8670    1.4538   -1.9160 H   0  0  0  0  0  0  0  0  0  0  0  0
    2.1538   -0.5844   -1.5544 C   0  0  0  0  0  0  0  0  0  0  0  0
    2.8023   -1.1902   -2.1761 H   0  0  0  0  0  0  0  0  0  0  0  0
    1.1347   -1.2330   -0.7916 N   0  0  0  0  0  0  0  0  0  0  0  0
    0.9503   -2.2333   -0.8457 H   0  0  0  0  0  0  0  0  0  0  0  0
    0.8065   -0.2120    1.9546 C   0  0  0  0  0  0  0  0  0  0  0  0
    0.3993   -1.1402    2.3847 H   0  0  0  0  0  0  0  0  0  0  0  0
    1.8979   -0.2409    2.0817 H   0  0  0  0  0  0  0  0  0  0  0  0
    0.4251    0.6229    2.5629 H   0  0  0  0  0  0  0  0  0  0  0  0
    1.0612    2.3065   -0.3996 H   0  0  0  0  0  0  0  0  0  0  0  0
   -1.9246   -1.9460   -0.1071 C   0  0  0  0  0  0  0  0  0  0  0  0
   -1.8748   -3.0954   -0.2122 N   0  0  0  0  0  0  0  0  0  0  0  0
  2  3  3  0  0  0  0
  1  2  1  0  0  0  0
  4  5  3  0  0  0  0
  1  4  1  0  0  0  0
  7  6  1  0  0  0  0
  8  7  1  0  0  0  0
  9  8  1  0  0  0  0
 10  8  2  0  0  0  0
 10 12  1  0  0  0  0
 11 10  1  0  0  0  0
 12  6  1  0  0  0  0
  1  6  1  0  0  0  0
 12 13  1  0  0  0  0
 14 15  1  0  0  0  0
 14 16  1  0  0  0  0
 14 17  1  0  0  0  0
  6 14  1  0  0  0  0
  7 18  1  0  0  0  0
 19 20  3  0  0  0  0
  1 19  1  0  0  0  0
M  END
> <PM6_ENERGY>
160.898

> <UID>
DOYDMCSFTBQBNQ-AIUYYZQXNA-N

> <FITNESS>
1.1399

> <GCODE>
9980

> <GraphENC>
9980 72_1_0,81_66_1,98_1_1,87_66_1,203808_1_2,203680_31_1,203695_1_2, 72_0_81_0_SINGLE_Xlig:0_Xlig:1,72_2_98_1_SINGLE_scaff:0_MBisAminoPhosphine:1,72_1_87_0_SINGLE_Xlig:0_Xlig:1,98_3_203808_0_SINGLE_LCycloBisAminoPhospholeSubN:0_hyd:1,98_0_203680_0_SINGLE_LBisAminoPhosphineSubR:0_SubRS:1,98_2_203695_0_SINGLE_LCycloBisAminoPhospholeSubN:0_hyd:1, SymmetricSet [symIds=[203808, 203695]] 

> <GraphJson>
{
  "graphId": 9980,
  "gVertices": [
    {
      "lstAPs": [
        {
          "id": 266107,
          "atomPositionNumber": 0,
          "atomPositionNumberInMol": 0,
          "apClass": {
            "rule": "Xlig",
            "subClass": 0,
            "bndTyp": "SINGLE"
          },
          "dirVec": {
            "x": -2.3339,
            "y": -0.0087,
            "z": 0.8172
          }
        },
        {
          "id": 266108,
          "atomPositionNumber": 0,
          "atomPositionNumberInMol": 0,
          "apClass": {
            "rule": "Xlig",
            "subClass": 0,
            "bndTyp": "SINGLE"
          },
          "dirVec": {
            "x": 2.336,
            "y": -5.0E-4,
            "z": 0.829
          }
        },
        {
          "id": 266109,
          "atomPositionNumber": 0,
          "atomPositionNumberInMol": 0,
          "apClass": {
            "rule": "scaff",
            "subClass": 0,
            "bndTyp": "SINGLE"
          },
          "dirVec": {
            "x": -0.0095,
            "y": 0.0046,
            "z": -1.7113
          }
        }
      ],
      "lstSymAPs": [
        {
          "symIds": [
            0,
            1
          ]
        }
      ],
      "mol": {
        "atoms": [
          {
            "elSymbol": "Pt",
            "p3d": {
              "x": -0.0098,
              "y": 0.0049,
              "z": 0.6289
            }
          },
          {
            "elSymbol": "C",
            "p3d": {
              "x": -6.0E-4,
              "y": 0.0016,
              "z": 2.5609
            }
          },
          {
            "elSymbol": "O",
            "p3d": {
              "x": 0.0025,
              "y": -0.0041,
              "z": 3.6974
            }
          },
          {
            "elSymbol": "Du",
            "p3d": {
              "x": -0.007,
              "y": 1.0013,
              "z": 0.6372
            }
          },
          {
            "elSymbol": "Du",
            "p3d": {
              "x": -0.0014,
              "y": 0.9902,
              "z": 2.5698
            }
          }
        ],
        "bonds": [
          {
            "atomIds": [
              1,
              2
            ],
            "bo": "TRIPLE"
          },
          {
            "atomIds": [
              0,
              1
            ],
            "bo": "SINGLE"
          },
          {
            "atomIds": [
              3,
              0
            ],
            "bo": "SINGLE"
          },
          {
            "atomIds": [
              4,
              1
            ],
            "bo": "SINGLE"
          }
        ]
      },
      "vertexId": 72,
      "buildingBlockId": 0,
      "buildingBlockType": "SCAFFOLD",
      "isRCV": false,
      "properties": {
        "ATTACHMENT_POINTS": "1#Xlig:0:SINGLE:-2.3339%-0.0087%0.8172,Xlig:0:SINGLE:2.3360%-0.0005%0.8290,scaff:0:SINGLE:-0.0095%0.0046%-1.7113 "
      },
      "uniquefyingPropertyKeys": [],
      "allowedMutationTypes": [
        "DELETE",
        "EXTEND",
        "CHANGEBRANCH",
        "CHANGELINK",
        "ADDLINK",
        "DELETELINK",
        "DELETECHAIN"
      ],
      "vertexType": "MolecularFragment"
    },
    {
      "lstAPs": [
        {
          "id": 266110,
          "atomPositionNumber": 0,
          "atomPositionNumberInMol": 5,
          "apClass": {
            "rule": "Xlig",
            "subClass": 1,
            "bndTyp": "SINGLE"
          },
          "dirVec": {
            "x": 0.0192,
            "y": -0.0048,
            "z": -0.5645
          }
        }
      ],
      "lstSymAPs": [],
      "mol": {
        "atoms": [
          {
            "elSymbol": "C",
            "p3d": {
              "x": -1.967,
              "y": -0.0075,
              "z": -0.4937
            }
          },
          {
            "elSymbol": "N",
            "p3d": {
              "x": -3.1263,
              "y": -0.0054,
              "z": -0.4354
            }
          },
          {
            "elSymbol": "Du",
            "p3d": {
              "x": -1.9744,
              "y": 0.9926,
              "z": -0.5036
            }
          }
        ],
        "bonds": [
          {
            "atomIds": [
              0,
              1
            ],
            "bo": "TRIPLE"
          },
          {
            "atomIds": [
              2,
              0
            ],
            "bo": "SINGLE"
          }
        ]
      },
      "vertexId": 81,
      "buildingBlockId": 65,
      "buildingBlockType": "FRAGMENT",
      "isRCV": false,
      "properties": {
        "ATTACHMENT_POINTS": "1#Xlig:1:SINGLE:0.0192%-0.0048%-0.5645 "
      },
      "uniquefyingPropertyKeys": [],
      "allowedMutationTypes": [
        "DELETE",
        "EXTEND",
        "CHANGEBRANCH",
        "CHANGELINK",
        "ADDLINK",
        "DELETELINK",
        "DELETECHAIN"
      ],
      "vertexType": "MolecularFragment"
    },
    {
      "lstAPs": [
        {
          "id": 266111,
          "atomPositionNumber": 0,
          "atomPositionNumberInMol": 8,
          "apClass": {
            "rule": "LBisAminoPhosphineSubR",
            "subClass": 0,
            "bndTyp": "SINGLE"
          },
          "dirVec": {
            "x": 0.3903,
            "y": 10.7729,
            "z": 7.1334
          }
        },
        {
          "id": 266112,
          "atomPositionNumber": 0,
          "atomPositionNumberInMol": 8,
          "apClass": {
            "rule": "MBisAminoPhosphine",
            "subClass": 1,
            "bndTyp": "SINGLE"
          },
          "dirVec": {
            "x": 3.6116,
            "y": 11.0342,
            "z": 7.1611
          }
        },
        {
          "id": 266113,
          "atomPositionNumber": 1,
          "atomPositionNumberInMol": 9,
          "apClass": {
            "rule": "LCycloBisAminoPhospholeSubN",
            "subClass": 0,
            "bndTyp": "SINGLE"
          },
          "dirVec": {
            "x": 2.2148,
            "y": 8.0833,
            "z": 4.9044
          }
        },
        {
          "id": 266114,
          "atomPositionNumber": 6,
          "atomPositionNumberInMol": 14,
          "apClass": {
            "rule": "LCycloBisAminoPhospholeSubN",
            "subClass": 0,
            "bndTyp": "SINGLE"
          },
          "dirVec": {
            "x": 1.6922,
            "y": 13.2521,
            "z": 4.8571
          }
        }
      ],
      "lstSymAPs": [
        {
          "symIds": [
            2,
            3
          ]
        }
      ],
      "mol": {
        "atoms": [
          {
            "elSymbol": "P",
            "p3d": {
              "x": 1.8143,
              "y": 10.6855,
              "z": 5.9523
            }
          },
          {
            "elSymbol": "N",
            "p3d": {
              "x": 1.6265,
              "y": 9.4144,
              "z": 4.8677
            }
          },
          {
            "elSymbol": "C",
            "p3d": {
              "x": 1.0259,
              "y": 9.8892,
              "z": 3.6721
            }
          },
          {
            "elSymbol": "H",
            "p3d": {
              "x": 0.6933,
              "y": 9.2356,
              "z": 2.8689
            }
          },
          {
            "elSymbol": "C",
            "p3d": {
              "x": 0.9201,
              "y": 11.2066,
              "z": 3.6217
            }
          },
          {
            "elSymbol": "H",
            "p3d": {
              "x": 0.5137,
              "y": 11.7372,
              "z": 2.7731
            }
          },
          {
            "elSymbol": "N",
            "p3d": {
              "x": 1.3983,
              "y": 11.8325,
              "z": 4.7913
            }
          }
        ],
        "bonds": [
          {
            "atomIds": [
              1,
              0
            ],
            "bo": "SINGLE"
          },
          {
            "atomIds": [
              2,
              1
            ],
            "bo": "SINGLE"
          },
          {
            "atomIds": [
              3,
              2
            ],
            "bo": "SINGLE"
          },
          {
            "atomIds": [
              4,
              2
            ],
            "bo": "DOUBLE"
          },
          {
            "atomIds": [
              4,
              6
            ],
            "bo": "SINGLE"
          },
          {
            "atomIds": [
              5,
              4
            ],
            "bo": "SINGLE"
          },
          {
            "atomIds": [
              6,
              0
            ],
            "bo": "SINGLE"
          }
        ]
      },
      "vertexId": 98,
      "buildingBlockId": 0,
      "buildingBlockType": "FRAGMENT",
      "isRCV": false,
      "properties": {
        "ATTACHMENT_POINTS": "1#LBisAminoPhosphineSubR:0:SINGLE:0.3903%10.7729%7.1334,MBisAminoPhosphine:1:SINGLE:3.6116%11.0342%7.1611 2#LCycloBisAminoPhospholeSubN:0:SINGLE:2.2148%8.0833%4.9044 7#LCycloBisAminoPhospholeSubN:0:SINGLE:1.6922%13.2521%4.8571 "
      },
      "uniquefyingPropertyKeys": [],
      "allowedMutationTypes": [
        "DELETE",
        "EXTEND",
        "CHANGEBRANCH",
        "CHANGELINK",
        "ADDLINK",
        "DELETELINK",
        "DELETECHAIN"
      ],
      "vertexType": "MolecularFragment"
    },
    {
      "lstAPs": [
        {
          "id": 266115,
          "atomPositionNumber": 0,
          "atomPositionNumberInMol": 21,
          "apClass": {
            "rule": "Xlig",
            "subClass": 1,
            "bndTyp": "SINGLE"
          },
          "dirVec": {
            "x": 0.0192,
            "y": -0.0048,
            "z": -0.5645
          }
        }
      ],
      "lstSymAPs": [],
      "mol": {
        "atoms": [
          {
            "elSymbol": "C",
            "p3d": {
              "x": -1.967,
              "y": -0.0075,
              "z": -0.4937
            }
          },
          {
            "elSymbol": "N",
            "p3d": {
              "x": -3.1263,
              "y": -0.0054,
              "z": -0.4354
            }
          },
          {
            "elSymbol": "Du",
            "p3d": {
              "x": -1.9744,
              "y": 0.9926,
              "z": -0.5036
            }
          }
        ],
        "bonds": [
          {
            "atomIds": [
              0,
              1
            ],
            "bo": "TRIPLE"
          },
          {
            "atomIds": [
              2,
              0
            ],
            "bo": "SINGLE"
          }
        ]
      },
      "vertexId": 87,
      "buildingBlockId": 65,
      "buildingBlockType": "FRAGMENT",
      "isRCV": false,
      "properties": {
        "ATTACHMENT_POINTS": "1#Xlig:1:SINGLE:0.0192%-0.0048%-0.5645 "
      },
      "uniquefyingPropertyKeys": [],
      "allowedMutationTypes": [
        "DELETE",
        "EXTEND",
        "CHANGEBRANCH",
        "CHANGELINK",
        "ADDLINK",
        "DELETELINK",
        "DELETECHAIN"
      ],
      "vertexType": "MolecularFragment"
    },
    {
      "lstAPs": [
        {
          "id": 266152,
          "atomPositionNumber": 0,
          "atomPositionNumberInMol": 15,
          "apClass": {
            "rule": "hyd",
            "subClass": 1,
            "bndTyp": "SINGLE"
          },
          "dirVec": {
            "x": 0.4589,
            "y": -1.751,
            "z": 0.3869
          }
        }
      ],
      "lstSymAPs": [],
      "mol": {
        "atoms": [
          {
            "elSymbol": "H",
            "p3d": {
              "x": 0.1925,
              "y": -2.5024,
              "z": 1.1483
            }
          }
        ],
        "bonds": []
      },
      "vertexId": 203808,
      "buildingBlockId": 0,
      "buildingBlockType": "CAP",
      "isRCV": false,
      "properties": {
        "ATTACHMENT_POINTS": "1#hyd:1:SINGLE:0.4589%-1.7510%0.3869 "
      },
      "uniquefyingPropertyKeys": [],
      "allowedMutationTypes": [
        "DELETE",
        "EXTEND",
        "CHANGEBRANCH",
        "CHANGELINK",
        "ADDLINK",
        "DELETELINK",
        "DELETECHAIN"
      ],
      "vertexType": "MolecularFragment"
    },
    {
      "lstAPs": [
        {
          "id": 266153,
          "atomPositionNumber": 0,
          "atomPositionNumberInMol": 16,
          "apClass": {
            "rule": "SubRS",
            "subClass": 1,
            "bndTyp": "SINGLE"
          },
          "dirVec": {
            "x": 0.2865,
            "y": 0.3959,
            "z": -0.6387
          }
        }
      ],
      "lstSymAPs": [],
      "mol": {
        "atoms": [
          {
            "elSymbol": "C",
            "p3d": {
              "x": 0.3969,
              "y": -0.0496,
              "z": 0.8235
            }
          },
          {
            "elSymbol": "H",
            "p3d": {
              "x": -0.6146,
              "y": -0.163,
              "z": 1.2402
            }
          },
          {
            "elSymbol": "H",
            "p3d": {
              "x": 0.9335,
              "y": -0.9979,
              "z": 0.8998
            }
          },
          {
            "elSymbol": "H",
            "p3d": {
              "x": 0.9252,
              "y": 0.7237,
              "z": 1.3995
            }
          }
        ],
        "bonds": [
          {
            "atomIds": [
              0,
              1
            ],
            "bo": "SINGLE"
          },
          {
            "atomIds": [
              0,
              2
            ],
            "bo": "SINGLE"
          },
          {
            "atomIds": [
              0,
              3
            ],
            "bo": "SINGLE"
          }
        ]
      },
      "vertexId": 203680,
      "buildingBlockId": 30,
      "buildingBlockType": "FRAGMENT",
      "isRCV": false,
      "properties": {
        "ATTACHMENT_POINTS": "1#SubRS:1:SINGLE:0.2865%0.3959%-0.6387 "
      },
      "uniquefyingPropertyKeys": [],
      "allowedMutationTypes": [
        "DELETE",
        "EXTEND",
        "CHANGEBRANCH",
        "CHANGELINK",
        "ADDLINK",
        "DELETELINK",
        "DELETECHAIN"
      ],
      "vertexType": "MolecularFragment"
    },
    {
      "lstAPs": [
        {
          "id": 266154,
          "atomPositionNumber": 0,
          "atomPositionNumberInMol": 20,
          "apClass": {
            "rule": "hyd",
            "subClass": 1,
            "bndTyp": "SINGLE"
          },
          "dirVec": {
            "x": 0.4589,
            "y": -1.751,
            "z": 0.3869
          }
        }
      ],
      "lstSymAPs": [],
      "mol": {
        "atoms": [
          {
            "elSymbol": "H",
            "p3d": {
              "x": 0.1925,
              "y": -2.5024,
              "z": 1.1483
            }
          }
        ],
        "bonds": []
      },
      "vertexId": 203695,
      "buildingBlockId": 0,
      "buildingBlockType": "CAP",
      "isRCV": false,
      "properties": {
        "ATTACHMENT_POINTS": "1#hyd:1:SINGLE:0.4589%-1.7510%0.3869 "
      },
      "uniquefyingPropertyKeys": [],
      "allowedMutationTypes": [
        "DELETE",
        "EXTEND",
        "CHANGEBRANCH",
        "CHANGELINK",
        "ADDLINK",
        "DELETELINK",
        "DELETECHAIN"
      ],
      "vertexType": "MolecularFragment"
    }
  ],
  "gEdges": [
    {
      "srcAPID": 266107,
      "trgAPID": 266110,
      "bondType": "SINGLE"
    },
    {
      "srcAPID": 266109,
      "trgAPID": 266112,
      "bondType": "SINGLE"
    },
    {
      "srcAPID": 266108,
      "trgAPID": 266115,
      "bondType": "SINGLE"
    },
    {
      "srcAPID": 266114,
      "trgAPID": 266152,
      "bondType": "SINGLE"
    },
    {
      "srcAPID": 266111,
      "trgAPID": 266153,
      "bondType": "SINGLE"
    },
    {
      "srcAPID": 266113,
      "trgAPID": 266154,
      "bondType": "SINGLE"
    }
  ],
  "gRings": [],
  "symVertices": [
    {
      "symIds": [
        203808,
        203695
      ]
    }
  ]
}

> <SMILES>
[Pt](C#O)(C#N)([P]1(N(C([H])=C(N1[H])[H])[H])C([H])([H])[H])C#N

$$$$
