M00010640
  CDK     04222212293D

 39 40  0  0  0  0  0  0  0  0999 V2000
   -2.1385   -0.6355    0.8121 Pt  0  0  0  0  0  0  0  0  0  0  0  0
   -4.0633   -0.9997    0.8253 C   0  0  0  0  0  0  0  0  0  0  0  0
   -5.1833   -1.2156    0.8342 O   0  0  0  0  0  0  0  0  0  0  0  0
   -2.3896    1.2558    0.2955 C   0  0  0  0  0  0  0  0  0  0  0  0
   -2.5353    2.3623   -0.0079 N   0  0  0  0  0  0  0  0  0  0  0  0
    0.0932   -0.1431    0.7325 P   0  0  0  0  0  0  0  0  0  0  0  0
    1.1021   -1.4718    1.5975 C   0  0  0  0  0  0  0  0  0  0  0  0
    0.7691   -2.4827    1.2676 H   0  0  0  0  0  0  0  0  0  0  0  0
    2.1748   -1.3952    1.3424 H   0  0  0  0  0  0  0  0  0  0  0  0
    0.8717   -1.3056    3.0985 C   0  0  0  0  0  0  0  0  0  0  0  0
   -0.1893   -1.5284    3.3600 H   0  0  0  0  0  0  0  0  0  0  0  0
    1.4535   -2.0862    3.6352 H   0  0  0  0  0  0  0  0  0  0  0  0
    1.2780    0.0751    3.6349 C   0  0  0  0  0  0  0  0  0  0  0  0
    2.3459    0.2685    3.4150 H   0  0  0  0  0  0  0  0  0  0  0  0
    1.2028    0.0643    4.7417 H   0  0  0  0  0  0  0  0  0  0  0  0
    0.4125    1.2230    3.0920 C   0  0  0  0  0  0  0  0  0  0  0  0
    0.6846    2.1604    3.6246 H   0  0  0  0  0  0  0  0  0  0  0  0
   -0.6550    1.0535    3.3577 H   0  0  0  0  0  0  0  0  0  0  0  0
    0.5739    1.4541    1.5901 C   0  0  0  0  0  0  0  0  0  0  0  0
    1.6147    1.7386    1.3398 H   0  0  0  0  0  0  0  0  0  0  0  0
   -0.0643    2.2989    1.2487 H   0  0  0  0  0  0  0  0  0  0  0  0
    0.5923   -0.1353   -1.0946 C   0  0  0  0  0  0  0  0  0  0  0  0
   -0.1270   -1.0431   -3.3297 C   0  0  0  0  0  0  0  0  0  0  0  0
    1.0126    1.2162   -3.1706 C   0  0  0  0  0  0  0  0  0  0  0  0
   -0.0068    0.3615   -3.9357 C   0  0  0  0  0  0  0  0  0  0  0  0
    0.6723    1.2833   -1.6708 C   0  0  0  0  0  0  0  0  0  0  0  0
   -0.4662   -0.9763   -1.8306 C   0  0  0  0  0  0  0  0  0  0  0  0
    0.8167   -1.6012   -3.4796 H   0  0  0  0  0  0  0  0  0  0  0  0
    2.0299    0.8047   -3.3108 H   0  0  0  0  0  0  0  0  0  0  0  0
   -0.9963    0.8604   -3.9227 H   0  0  0  0  0  0  0  0  0  0  0  0
   -0.2916    1.8264   -1.5535 H   0  0  0  0  0  0  0  0  0  0  0  0
   -1.4866   -0.5352   -1.7160 H   0  0  0  0  0  0  0  0  0  0  0  0
    1.5927   -0.6244   -1.2055 H   0  0  0  0  0  0  0  0  0  0  0  0
   -0.9084   -1.6181   -3.8626 H   0  0  0  0  0  0  0  0  0  0  0  0
    1.0350    2.2399   -3.5911 H   0  0  0  0  0  0  0  0  0  0  0  0
    0.2840    0.2900   -5.0005 H   0  0  0  0  0  0  0  0  0  0  0  0
    1.4393    1.8923   -1.1552 H   0  0  0  0  0  0  0  0  0  0  0  0
   -0.5288   -2.0102   -1.4264 H   0  0  0  0  0  0  0  0  0  0  0  0
   -2.0211   -2.9216    1.4184 Cl  0  0  0  0  0  0  0  0  0  0  0  0
  2  3  3  0  0  0  0
  1  2  1  0  0  0  0
  4  5  3  0  0  0  0
  1  4  1  0  0  0  0
  7  6  1  0  0  0  0
  8  7  1  0  0  0  0
  9  7  1  0  0  0  0
 10  7  1  0  0  0  0
 11 10  1  0  0  0  0
 12 10  1  0  0  0  0
 13 10  1  0  0  0  0
 14 13  1  0  0  0  0
 15 13  1  0  0  0  0
 16 13  1  0  0  0  0
 16 19  1  0  0  0  0
 17 16  1  0  0  0  0
 18 16  1  0  0  0  0
 19  6  1  0  0  0  0
 20 19  1  0  0  0  0
 21 19  1  0  0  0  0
  1  6  1  0  0  0  0
 22 33  1  0  0  0  0
 22 26  1  0  0  0  0
 22 27  1  0  0  0  0
 23 28  1  0  0  0  0
 23 34  1  0  0  0  0
 23 25  1  0  0  0  0
 23 27  1  0  0  0  0
 24 29  1  0  0  0  0
 24 35  1  0  0  0  0
 24 26  1  0  0  0  0
 24 25  1  0  0  0  0
 25 30  1  0  0  0  0
 25 36  1  0  0  0  0
 26 31  1  0  0  0  0
 26 37  1  0  0  0  0
 27 32  1  0  0  0  0
 27 38  1  0  0  0  0
  6 22  1  0  0  0  0
  1 39  1  0  0  0  0
M  END
> <PM6_ENERGY>
-281.699

> <UID>
PTBAXLBZBGNCQT-FNUJRUEJNA-M

> <FITNESS>
1.14065

> <GCODE>
11667

> <GraphENC>
11667 72_1_0,81_66_1,105_43_1,88_67_1,238717_35_1, 72_0_81_0_SINGLE_Xlig:0_Xlig:1,72_2_105_1_SINGLE_scaff:0_MPhosphine:1,72_1_88_0_SINGLE_Xlig:0_Xlig:1,105_0_238717_0_SINGLE_LPhosphineSubM:0_SubRM:1, 

> <GraphJson>
{
  "graphId": 11667,
  "gVertices": [
    {
      "lstAPs": [
        {
          "id": 311687,
          "atomPositionNumber": 0,
          "atomPositionNumberInMol": 0,
          "apClass": {
            "rule": "Xlig",
            "subClass": 0,
            "bndTyp": "SINGLE"
          },
          "dirVec": {
            "x": -2.3339,
            "y": -0.0087,
            "z": 0.8172
          }
        },
        {
          "id": 311688,
          "atomPositionNumber": 0,
          "atomPositionNumberInMol": 0,
          "apClass": {
            "rule": "Xlig",
            "subClass": 0,
            "bndTyp": "SINGLE"
          },
          "dirVec": {
            "x": 2.336,
            "y": -5.0E-4,
            "z": 0.829
          }
        },
        {
          "id": 311689,
          "atomPositionNumber": 0,
          "atomPositionNumberInMol": 0,
          "apClass": {
            "rule": "scaff",
            "subClass": 0,
            "bndTyp": "SINGLE"
          },
          "dirVec": {
            "x": -0.0095,
            "y": 0.0046,
            "z": -1.7113
          }
        }
      ],
      "lstSymAPs": [
        {
          "symIds": [
            0,
            1
          ]
        }
      ],
      "mol": {
        "atoms": [
          {
            "elSymbol": "Pt",
            "p3d": {
              "x": -0.0098,
              "y": 0.0049,
              "z": 0.6289
            }
          },
          {
            "elSymbol": "C",
            "p3d": {
              "x": -6.0E-4,
              "y": 0.0016,
              "z": 2.5609
            }
          },
          {
            "elSymbol": "O",
            "p3d": {
              "x": 0.0025,
              "y": -0.0041,
              "z": 3.6974
            }
          },
          {
            "elSymbol": "Du",
            "p3d": {
              "x": -0.007,
              "y": 1.0013,
              "z": 0.6372
            }
          },
          {
            "elSymbol": "Du",
            "p3d": {
              "x": -0.0014,
              "y": 0.9902,
              "z": 2.5698
            }
          }
        ],
        "bonds": [
          {
            "atomIds": [
              1,
              2
            ],
            "bo": "TRIPLE"
          },
          {
            "atomIds": [
              0,
              1
            ],
            "bo": "SINGLE"
          },
          {
            "atomIds": [
              3,
              0
            ],
            "bo": "SINGLE"
          },
          {
            "atomIds": [
              4,
              1
            ],
            "bo": "SINGLE"
          }
        ]
      },
      "vertexId": 72,
      "buildingBlockId": 0,
      "buildingBlockType": "SCAFFOLD",
      "isRCV": false,
      "properties": {
        "ATTACHMENT_POINTS": "1#Xlig:0:SINGLE:-2.3339%-0.0087%0.8172,Xlig:0:SINGLE:2.3360%-0.0005%0.8290,scaff:0:SINGLE:-0.0095%0.0046%-1.7113 "
      },
      "uniquefyingPropertyKeys": [],
      "allowedMutationTypes": [
        "DELETE",
        "EXTEND",
        "CHANGEBRANCH",
        "CHANGELINK",
        "ADDLINK",
        "DELETELINK",
        "DELETECHAIN"
      ],
      "vertexType": "MolecularFragment"
    },
    {
      "lstAPs": [
        {
          "id": 311690,
          "atomPositionNumber": 0,
          "atomPositionNumberInMol": 5,
          "apClass": {
            "rule": "Xlig",
            "subClass": 1,
            "bndTyp": "SINGLE"
          },
          "dirVec": {
            "x": 0.0192,
            "y": -0.0048,
            "z": -0.5645
          }
        }
      ],
      "lstSymAPs": [],
      "mol": {
        "atoms": [
          {
            "elSymbol": "C",
            "p3d": {
              "x": -1.967,
              "y": -0.0075,
              "z": -0.4937
            }
          },
          {
            "elSymbol": "N",
            "p3d": {
              "x": -3.1263,
              "y": -0.0054,
              "z": -0.4354
            }
          },
          {
            "elSymbol": "Du",
            "p3d": {
              "x": -1.9744,
              "y": 0.9926,
              "z": -0.5036
            }
          }
        ],
        "bonds": [
          {
            "atomIds": [
              0,
              1
            ],
            "bo": "TRIPLE"
          },
          {
            "atomIds": [
              2,
              0
            ],
            "bo": "SINGLE"
          }
        ]
      },
      "vertexId": 81,
      "buildingBlockId": 65,
      "buildingBlockType": "FRAGMENT",
      "isRCV": false,
      "properties": {
        "ATTACHMENT_POINTS": "1#Xlig:1:SINGLE:0.0192%-0.0048%-0.5645 "
      },
      "uniquefyingPropertyKeys": [],
      "allowedMutationTypes": [
        "DELETE",
        "EXTEND",
        "CHANGEBRANCH",
        "CHANGELINK",
        "ADDLINK",
        "DELETELINK",
        "DELETECHAIN"
      ],
      "vertexType": "MolecularFragment"
    },
    {
      "lstAPs": [
        {
          "id": 311691,
          "atomPositionNumber": 0,
          "atomPositionNumberInMol": 8,
          "apClass": {
            "rule": "LPhosphineSubM",
            "subClass": 0,
            "bndTyp": "SINGLE"
          },
          "dirVec": {
            "x": -1.1846,
            "y": 9.2743,
            "z": 11.0929
          }
        },
        {
          "id": 311692,
          "atomPositionNumber": 0,
          "atomPositionNumberInMol": 8,
          "apClass": {
            "rule": "MPhosphine",
            "subClass": 1,
            "bndTyp": "SINGLE"
          },
          "dirVec": {
            "x": 0.7356,
            "y": 6.5277,
            "z": 10.7143
          }
        }
      ],
      "lstSymAPs": [],
      "mol": {
        "atoms": [
          {
            "elSymbol": "P",
            "p3d": {
              "x": 0.3777,
              "y": 8.7188,
              "z": 10.3566
            }
          },
          {
            "elSymbol": "C",
            "p3d": {
              "x": 0.3703,
              "y": 9.4545,
              "z": 8.6907
            }
          },
          {
            "elSymbol": "H",
            "p3d": {
              "x": -0.3722,
              "y": 8.9257,
              "z": 8.0745
            }
          },
          {
            "elSymbol": "H",
            "p3d": {
              "x": 0.0532,
              "y": 10.4926,
              "z": 8.7648
            }
          },
          {
            "elSymbol": "C",
            "p3d": {
              "x": 1.7376,
              "y": 9.3835,
              "z": 8.006
            }
          },
          {
            "elSymbol": "H",
            "p3d": {
              "x": 2.0419,
              "y": 8.3396,
              "z": 7.8978
            }
          },
          {
            "elSymbol": "H",
            "p3d": {
              "x": 1.6558,
              "y": 9.7991,
              "z": 7.0025
            }
          },
          {
            "elSymbol": "C",
            "p3d": {
              "x": 2.7947,
              "y": 10.1457,
              "z": 8.774
            }
          },
          {
            "elSymbol": "H",
            "p3d": {
              "x": 2.5157,
              "y": 11.1973,
              "z": 8.8416
            }
          },
          {
            "elSymbol": "H",
            "p3d": {
              "x": 3.7443,
              "y": 10.0811,
              "z": 8.2528
            }
          },
          {
            "elSymbol": "C",
            "p3d": {
              "x": 2.9937,
              "y": 9.6061,
              "z": 10.2064
            }
          },
          {
            "elSymbol": "H",
            "p3d": {
              "x": 3.7985,
              "y": 10.1828,
              "z": 10.6765
            }
          },
          {
            "elSymbol": "H",
            "p3d": {
              "x": 3.2993,
              "y": 8.5721,
              "z": 10.1385
            }
          },
          {
            "elSymbol": "C",
            "p3d": {
              "x": 1.7325,
              "y": 9.7184,
              "z": 11.0567
            }
          },
          {
            "elSymbol": "H",
            "p3d": {
              "x": 1.4263,
              "y": 10.7573,
              "z": 11.1135
            }
          },
          {
            "elSymbol": "H",
            "p3d": {
              "x": 1.9542,
              "y": 9.3693,
              "z": 12.0604
            }
          }
        ],
        "bonds": [
          {
            "atomIds": [
              1,
              0
            ],
            "bo": "SINGLE"
          },
          {
            "atomIds": [
              2,
              1
            ],
            "bo": "SINGLE"
          },
          {
            "atomIds": [
              3,
              1
            ],
            "bo": "SINGLE"
          },
          {
            "atomIds": [
              4,
              1
            ],
            "bo": "SINGLE"
          },
          {
            "atomIds": [
              5,
              4
            ],
            "bo": "SINGLE"
          },
          {
            "atomIds": [
              6,
              4
            ],
            "bo": "SINGLE"
          },
          {
            "atomIds": [
              7,
              4
            ],
            "bo": "SINGLE"
          },
          {
            "atomIds": [
              8,
              7
            ],
            "bo": "SINGLE"
          },
          {
            "atomIds": [
              9,
              7
            ],
            "bo": "SINGLE"
          },
          {
            "atomIds": [
              10,
              7
            ],
            "bo": "SINGLE"
          },
          {
            "atomIds": [
              10,
              13
            ],
            "bo": "SINGLE"
          },
          {
            "atomIds": [
              11,
              10
            ],
            "bo": "SINGLE"
          },
          {
            "atomIds": [
              12,
              10
            ],
            "bo": "SINGLE"
          },
          {
            "atomIds": [
              13,
              0
            ],
            "bo": "SINGLE"
          },
          {
            "atomIds": [
              14,
              13
            ],
            "bo": "SINGLE"
          },
          {
            "atomIds": [
              15,
              13
            ],
            "bo": "SINGLE"
          }
        ]
      },
      "vertexId": 105,
      "buildingBlockId": 42,
      "buildingBlockType": "FRAGMENT",
      "isRCV": false,
      "properties": {
        "ATTACHMENT_POINTS": "1#LPhosphineSubM:0:SINGLE:-1.1846%9.2743%11.0929,MPhosphine:1:SINGLE:0.7356%6.5277%10.7143 "
      },
      "uniquefyingPropertyKeys": [],
      "allowedMutationTypes": [
        "DELETE",
        "EXTEND",
        "CHANGEBRANCH",
        "CHANGELINK",
        "ADDLINK",
        "DELETELINK",
        "DELETECHAIN"
      ],
      "vertexType": "MolecularFragment"
    },
    {
      "lstAPs": [
        {
          "id": 311693,
          "atomPositionNumber": 0,
          "atomPositionNumberInMol": 41,
          "apClass": {
            "rule": "Xlig",
            "subClass": 1,
            "bndTyp": "SINGLE"
          },
          "dirVec": {
            "x": -0.0053,
            "y": -0.0027,
            "z": 0.63
          }
        }
      ],
      "lstSymAPs": [],
      "mol": {
        "atoms": [
          {
            "elSymbol": "Cl",
            "p3d": {
              "x": 2.3243,
              "y": -0.0063,
              "z": 0.8189
            }
          }
        ],
        "bonds": []
      },
      "vertexId": 88,
      "buildingBlockId": 66,
      "buildingBlockType": "FRAGMENT",
      "isRCV": false,
      "properties": {
        "ATTACHMENT_POINTS": "1#Xlig:1:SINGLE:-0.0053%-0.0027%0.6300 "
      },
      "uniquefyingPropertyKeys": [],
      "allowedMutationTypes": [
        "DELETE",
        "EXTEND",
        "CHANGEBRANCH",
        "CHANGELINK",
        "ADDLINK",
        "DELETELINK",
        "DELETECHAIN"
      ],
      "vertexType": "MolecularFragment"
    },
    {
      "lstAPs": [
        {
          "id": 311718,
          "atomPositionNumber": 0,
          "atomPositionNumberInMol": 24,
          "apClass": {
            "rule": "SubRM",
            "subClass": 1,
            "bndTyp": "SINGLE"
          },
          "dirVec": {
            "x": 0.2917,
            "y": 0.3929,
            "z": -0.6365
          }
        }
      ],
      "lstSymAPs": [],
      "mol": {
        "atoms": [
          {
            "elSymbol": "C",
            "p3d": {
              "x": 1.7002,
              "y": 0.56,
              "z": -1.2045
            }
          },
          {
            "elSymbol": "C",
            "p3d": {
              "x": 3.564,
              "y": -0.7339,
              "z": -2.2652
            }
          },
          {
            "elSymbol": "C",
            "p3d": {
              "x": 2.9237,
              "y": 1.5034,
              "z": -3.1926
            }
          },
          {
            "elSymbol": "C",
            "p3d": {
              "x": 3.4145,
              "y": 0.0994,
              "z": -3.5498
            }
          },
          {
            "elSymbol": "C",
            "p3d": {
              "x": 1.5576,
              "y": 1.3879,
              "z": -2.5024
            }
          },
          {
            "elSymbol": "C",
            "p3d": {
              "x": 2.203,
              "y": -0.843,
              "z": -1.5702
            }
          },
          {
            "elSymbol": "H",
            "p3d": {
              "x": 4.3384,
              "y": -0.3241,
              "z": -1.6106
            }
          },
          {
            "elSymbol": "H",
            "p3d": {
              "x": 3.6361,
              "y": 2.0524,
              "z": -2.5991
            }
          },
          {
            "elSymbol": "H",
            "p3d": {
              "x": 2.7828,
              "y": -0.3911,
              "z": -4.2916
            }
          },
          {
            "elSymbol": "H",
            "p3d": {
              "x": 0.7737,
              "y": 0.9833,
              "z": -3.15
            }
          },
          {
            "elSymbol": "H",
            "p3d": {
              "x": 1.4815,
              "y": -1.3988,
              "z": -2.1783
            }
          },
          {
            "elSymbol": "H",
            "p3d": {
              "x": 2.3445,
              "y": 1.0609,
              "z": -0.4835
            }
          },
          {
            "elSymbol": "H",
            "p3d": {
              "x": 3.8429,
              "y": -1.7623,
              "z": -2.577
            }
          },
          {
            "elSymbol": "H",
            "p3d": {
              "x": 2.7428,
              "y": 2.0124,
              "z": -4.146
            }
          },
          {
            "elSymbol": "H",
            "p3d": {
              "x": 4.4291,
              "y": 0.2183,
              "z": -3.9628
            }
          },
          {
            "elSymbol": "H",
            "p3d": {
              "x": 1.2819,
              "y": 2.4034,
              "z": -2.1821
            }
          },
          {
            "elSymbol": "H",
            "p3d": {
              "x": 2.3734,
              "y": -1.3662,
              "z": -0.6149
            }
          }
        ],
        "bonds": [
          {
            "atomIds": [
              0,
              11
            ],
            "bo": "SINGLE"
          },
          {
            "atomIds": [
              0,
              4
            ],
            "bo": "SINGLE"
          },
          {
            "atomIds": [
              0,
              5
            ],
            "bo": "SINGLE"
          },
          {
            "atomIds": [
              1,
              6
            ],
            "bo": "SINGLE"
          },
          {
            "atomIds": [
              1,
              12
            ],
            "bo": "SINGLE"
          },
          {
            "atomIds": [
              1,
              3
            ],
            "bo": "SINGLE"
          },
          {
            "atomIds": [
              1,
              5
            ],
            "bo": "SINGLE"
          },
          {
            "atomIds": [
              2,
              7
            ],
            "bo": "SINGLE"
          },
          {
            "atomIds": [
              2,
              13
            ],
            "bo": "SINGLE"
          },
          {
            "atomIds": [
              2,
              4
            ],
            "bo": "SINGLE"
          },
          {
            "atomIds": [
              2,
              3
            ],
            "bo": "SINGLE"
          },
          {
            "atomIds": [
              3,
              8
            ],
            "bo": "SINGLE"
          },
          {
            "atomIds": [
              3,
              14
            ],
            "bo": "SINGLE"
          },
          {
            "atomIds": [
              4,
              9
            ],
            "bo": "SINGLE"
          },
          {
            "atomIds": [
              4,
              15
            ],
            "bo": "SINGLE"
          },
          {
            "atomIds": [
              5,
              10
            ],
            "bo": "SINGLE"
          },
          {
            "atomIds": [
              5,
              16
            ],
            "bo": "SINGLE"
          }
        ]
      },
      "vertexId": 238717,
      "buildingBlockId": 34,
      "buildingBlockType": "FRAGMENT",
      "isRCV": false,
      "properties": {
        "ATTACHMENT_POINTS": "1#SubRM:1:SINGLE:0.2917%0.3929%-0.6365 "
      },
      "uniquefyingPropertyKeys": [],
      "allowedMutationTypes": [
        "DELETE",
        "EXTEND",
        "CHANGEBRANCH",
        "CHANGELINK",
        "ADDLINK",
        "DELETELINK",
        "DELETECHAIN"
      ],
      "vertexType": "MolecularFragment"
    }
  ],
  "gEdges": [
    {
      "srcAPID": 311687,
      "trgAPID": 311690,
      "bondType": "SINGLE"
    },
    {
      "srcAPID": 311689,
      "trgAPID": 311692,
      "bondType": "SINGLE"
    },
    {
      "srcAPID": 311688,
      "trgAPID": 311693,
      "bondType": "SINGLE"
    },
    {
      "srcAPID": 311691,
      "trgAPID": 311718,
      "bondType": "SINGLE"
    }
  ],
  "gRings": [],
  "symVertices": []
}

> <SMILES>
[Pt](C#O)(C#N)([P]1(C([H])([H])C([H])([H])C([H])([H])C(C1([H])[H])([H])[H])C2([H])C(C([H])([H])C(C([H])([H])C2([H])[H])([H])[H])([H])[H])Cl

$$$$
