M00008844
  CDK     04222211523D

 59 64  0  0  0  0  0  0  0  0999 V2000
    0.3292    3.3422    1.4195 Pt  0  0  0  0  0  0  0  0  0  0  0  0
    0.6308    5.2447    1.5549 C   0  0  0  0  0  0  0  0  0  0  0  0
    0.8170    6.3704    1.6353 O   0  0  0  0  0  0  0  0  0  0  0  0
    2.2904    2.9717    1.4969 C   0  0  0  0  0  0  0  0  0  0  0  0
    3.4124    2.6966    1.5232 N   0  0  0  0  0  0  0  0  0  0  0  0
    0.2937    0.5137    0.3362 N   0  0  0  0  0  0  0  0  0  0  0  0
   -0.4442    0.6128    2.4937 C   0  0  0  0  0  0  0  0  0  0  0  0
   -0.8398    1.0682    3.7444 C   0  0  0  0  0  0  0  0  0  0  0  0
   -0.8184    2.1350    3.9824 H   0  0  0  0  0  0  0  0  0  0  0  0
   -1.2704    0.1138    4.6832 C   0  0  0  0  0  0  0  0  0  0  0  0
   -1.5886    0.4442    5.6731 H   0  0  0  0  0  0  0  0  0  0  0  0
   -1.2940   -1.2451    4.3637 C   0  0  0  0  0  0  0  0  0  0  0  0
   -1.6264   -1.9691    5.1102 H   0  0  0  0  0  0  0  0  0  0  0  0
   -0.8958   -1.7078    3.0935 C   0  0  0  0  0  0  0  0  0  0  0  0
   -0.9119   -2.7712    2.8593 H   0  0  0  0  0  0  0  0  0  0  0  0
   -0.4812   -0.7717    2.1646 C   0  0  0  0  0  0  0  0  0  0  0  0
    0.0322   -0.9637    0.7314 C   0  0  0  0  0  0  0  0  0  0  0  0
    0.0466    1.3669    1.3353 C   0  0  1  0  0  0  0  0  0  0  0  0
   -0.9919   -1.5134   -0.2438 C   0  0  0  0  0  0  0  0  0  0  0  0
   -0.5879   -1.8762   -1.5404 C   0  0  0  0  0  0  0  0  0  0  0  0
    0.4575   -1.7684   -1.8374 H   0  0  0  0  0  0  0  0  0  0  0  0
   -1.5204   -2.3654   -2.4566 C   0  0  0  0  0  0  0  0  0  0  0  0
   -1.2002   -2.6420   -3.4607 H   0  0  0  0  0  0  0  0  0  0  0  0
   -2.8648   -2.4920   -2.0905 C   0  0  0  0  0  0  0  0  0  0  0  0
   -3.5920   -2.8729   -2.8067 H   0  0  0  0  0  0  0  0  0  0  0  0
   -3.2727   -2.1207   -0.8068 C   0  0  0  0  0  0  0  0  0  0  0  0
   -4.3206   -2.2079   -0.5205 H   0  0  0  0  0  0  0  0  0  0  0  0
   -2.3423   -1.6276    0.1135 C   0  0  0  0  0  0  0  0  0  0  0  0
   -2.6852   -1.3281    1.1053 H   0  0  0  0  0  0  0  0  0  0  0  0
    2.8279    0.4954   -0.5625 H   0  0  0  0  0  0  0  0  0  0  0  0
    2.0841    0.8047   -1.3024 C   0  0  0  0  0  0  0  0  0  0  0  0
    0.7443    0.8950   -0.9923 C   0  0  0  0  0  0  0  0  0  0  0  0
    1.6306    1.5497   -3.5667 C   0  0  0  0  0  0  0  0  0  0  0  0
   -0.2278    1.3507   -1.9540 C   0  0  0  0  0  0  0  0  0  0  0  0
    2.5263    1.1389   -2.6127 C   0  0  0  0  0  0  0  0  0  0  0  0
    0.2378    1.6684   -3.2585 C   0  0  0  0  0  0  0  0  0  0  0  0
   -1.6186    1.5061   -1.6578 C   0  0  0  0  0  0  0  0  0  0  0  0
    3.5922    1.0654   -2.8336 H   0  0  0  0  0  0  0  0  0  0  0  0
   -0.3303    2.3516   -5.2433 H   0  0  0  0  0  0  0  0  0  0  0  0
    1.9653    1.8027   -4.5735 H   0  0  0  0  0  0  0  0  0  0  0  0
   -2.4915    1.9448   -2.6220 C   0  0  0  0  0  0  0  0  0  0  0  0
   -1.9827    1.2811   -0.6535 H   0  0  0  0  0  0  0  0  0  0  0  0
   -3.5502    2.0762   -2.3933 H   0  0  0  0  0  0  0  0  0  0  0  0
   -2.0274    2.2488   -3.9346 C   0  0  0  0  0  0  0  0  0  0  0  0
   -2.7455    2.5935   -4.6782 H   0  0  0  0  0  0  0  0  0  0  0  0
   -0.6979    2.1150   -4.2454 C   0  0  0  0  0  0  0  0  0  0  0  0
    1.3315   -1.7547    0.8170 C   0  0  0  0  0  0  0  0  0  0  0  0
    1.3492   -3.1154    0.4771 C   0  0  0  0  0  0  0  0  0  0  0  0
    0.4462   -3.6107    0.1172 H   0  0  0  0  0  0  0  0  0  0  0  0
    2.5276   -3.8565    0.6039 C   0  0  0  0  0  0  0  0  0  0  0  0
    2.5341   -4.9112    0.3308 H   0  0  0  0  0  0  0  0  0  0  0  0
    3.6931   -3.2508    1.0815 C   0  0  0  0  0  0  0  0  0  0  0  0
    4.6119   -3.8284    1.1753 H   0  0  0  0  0  0  0  0  0  0  0  0
    3.6726   -1.9012    1.4465 C   0  0  0  0  0  0  0  0  0  0  0  0
    4.5743   -1.4229    1.8324 H   0  0  0  0  0  0  0  0  0  0  0  0
    2.4961   -1.1579    1.3256 C   0  0  0  0  0  0  0  0  0  0  0  0
    2.4991   -0.1108    1.6411 H   0  0  0  0  0  0  0  0  0  0  0  0
   -1.6440    3.6305    1.3224 C   0  0  0  0  0  0  0  0  0  0  0  0
   -2.7894    3.7652    1.2574 N   0  0  0  0  0  0  0  0  0  0  0  0
  2  3  3  0  0  0  0
  1  2  1  0  0  0  0
  4  5  3  0  0  0  0
  1  4  1  0  0  0  0
  6 17  1  0  0  0  0
  7  8  1  0  0  0  0
  8  9  1  0  0  0  0
 10  8  2  0  0  0  0
 11 10  1  0  0  0  0
 12 10  1  0  0  0  0
 13 12  1  0  0  0  0
 14 12  2  0  0  0  0
 15 14  1  0  0  0  0
 16  7  2  0  0  0  0
 17 16  1  0  0  0  0
  6 18  1  0  0  0  0
  7 18  1  0  0  0  0
 14 16  1  0  0  0  0
  1 18  1  0  0  0  0
 20 19  1  0  0  0  0
 21 20  1  0  0  0  0
 22 20  2  0  0  0  0
 23 22  1  0  0  0  0
 24 22  1  0  0  0  0
 25 24  1  0  0  0  0
 26 24  2  0  0  0  0
 27 26  1  0  0  0  0
 28 19  2  0  0  0  0
 29 28  1  0  0  0  0
 26 28  1  0  0  0  0
 17 19  1  0  0  0  0
 30 31  1  0  0  0  0
 31 32  1  0  0  0  0
 31 35  2  0  0  0  0
 32 34  2  0  0  0  0
 34 36  1  0  0  0  0
 33 35  1  0  0  0  0
 33 36  2  0  0  0  0
 37 34  1  0  0  0  0
 36 46  1  0  0  0  0
 37 41  2  0  0  0  0
 41 44  1  0  0  0  0
 44 46  2  0  0  0  0
 33 40  1  0  0  0  0
 35 38  1  0  0  0  0
 37 42  1  0  0  0  0
 39 46  1  0  0  0  0
 44 45  1  0  0  0  0
 41 43  1  0  0  0  0
  6 32  1  0  0  0  0
 48 47  1  0  0  0  0
 49 48  1  0  0  0  0
 50 48  2  0  0  0  0
 51 50  1  0  0  0  0
 52 50  1  0  0  0  0
 53 52  1  0  0  0  0
 54 52  2  0  0  0  0
 55 54  1  0  0  0  0
 56 47  2  0  0  0  0
 57 56  1  0  0  0  0
 54 56  1  0  0  0  0
 17 47  1  0  0  0  0
 58 59  3  0  0  0  0
  1 58  1  0  0  0  0
M  END
> <PM6_ENERGY>
856.413

> <UID>
ZDZDQXIGHCXYAE-ISTWUMGONA-N

> <FITNESS>
1.14382

> <GCODE>
9789

> <GraphENC>
9789 72_1_0,81_66_1,93_15_1,87_66_1,199357_30_1,198945_39_1,198951_30_1, 72_0_81_0_SINGLE_Xlig:0_Xlig:1,72_2_93_3_SINGLE_scaff:0_MIsoindolylidene:1,72_1_87_0_SINGLE_Xlig:0_Xlig:1,93_2_199357_0_SINGLE_LIsoindolylideneSubCS:0_LIsoindolylideneSubCS:1,93_0_198945_0_SINGLE_LIsoindolylideneSubNL:0_SubArM:1,93_1_198951_0_SINGLE_LIsoindolylideneSubCS:0_LIsoindolylideneSubCS:1, SymmetricSet [symIds=[199357, 198951]] 

> <GraphJson>
{
  "graphId": 9789,
  "gVertices": [
    {
      "lstAPs": [
        {
          "id": 260595,
          "atomPositionNumber": 0,
          "atomPositionNumberInMol": 0,
          "apClass": {
            "rule": "Xlig",
            "subClass": 0,
            "bndTyp": "SINGLE"
          },
          "dirVec": {
            "x": -2.3339,
            "y": -0.0087,
            "z": 0.8172
          }
        },
        {
          "id": 260596,
          "atomPositionNumber": 0,
          "atomPositionNumberInMol": 0,
          "apClass": {
            "rule": "Xlig",
            "subClass": 0,
            "bndTyp": "SINGLE"
          },
          "dirVec": {
            "x": 2.336,
            "y": -5.0E-4,
            "z": 0.829
          }
        },
        {
          "id": 260597,
          "atomPositionNumber": 0,
          "atomPositionNumberInMol": 0,
          "apClass": {
            "rule": "scaff",
            "subClass": 0,
            "bndTyp": "SINGLE"
          },
          "dirVec": {
            "x": -0.0095,
            "y": 0.0046,
            "z": -1.7113
          }
        }
      ],
      "lstSymAPs": [
        {
          "symIds": [
            0,
            1
          ]
        }
      ],
      "mol": {
        "atoms": [
          {
            "elSymbol": "Pt",
            "p3d": {
              "x": -0.0098,
              "y": 0.0049,
              "z": 0.6289
            }
          },
          {
            "elSymbol": "C",
            "p3d": {
              "x": -6.0E-4,
              "y": 0.0016,
              "z": 2.5609
            }
          },
          {
            "elSymbol": "O",
            "p3d": {
              "x": 0.0025,
              "y": -0.0041,
              "z": 3.6974
            }
          },
          {
            "elSymbol": "Du",
            "p3d": {
              "x": -0.007,
              "y": 1.0013,
              "z": 0.6372
            }
          },
          {
            "elSymbol": "Du",
            "p3d": {
              "x": -0.0014,
              "y": 0.9902,
              "z": 2.5698
            }
          }
        ],
        "bonds": [
          {
            "atomIds": [
              1,
              2
            ],
            "bo": "TRIPLE"
          },
          {
            "atomIds": [
              0,
              1
            ],
            "bo": "SINGLE"
          },
          {
            "atomIds": [
              3,
              0
            ],
            "bo": "SINGLE"
          },
          {
            "atomIds": [
              4,
              1
            ],
            "bo": "SINGLE"
          }
        ]
      },
      "vertexId": 72,
      "buildingBlockId": 0,
      "buildingBlockType": "SCAFFOLD",
      "isRCV": false,
      "properties": {
        "ATTACHMENT_POINTS": "1#Xlig:0:SINGLE:-2.3339%-0.0087%0.8172,Xlig:0:SINGLE:2.3360%-0.0005%0.8290,scaff:0:SINGLE:-0.0095%0.0046%-1.7113 "
      },
      "uniquefyingPropertyKeys": [],
      "allowedMutationTypes": [
        "DELETE",
        "EXTEND",
        "CHANGEBRANCH",
        "CHANGELINK",
        "ADDLINK",
        "DELETELINK",
        "DELETECHAIN"
      ],
      "vertexType": "MolecularFragment"
    },
    {
      "lstAPs": [
        {
          "id": 260598,
          "atomPositionNumber": 0,
          "atomPositionNumberInMol": 5,
          "apClass": {
            "rule": "Xlig",
            "subClass": 1,
            "bndTyp": "SINGLE"
          },
          "dirVec": {
            "x": 0.0192,
            "y": -0.0048,
            "z": -0.5645
          }
        }
      ],
      "lstSymAPs": [],
      "mol": {
        "atoms": [
          {
            "elSymbol": "C",
            "p3d": {
              "x": -1.967,
              "y": -0.0075,
              "z": -0.4937
            }
          },
          {
            "elSymbol": "N",
            "p3d": {
              "x": -3.1263,
              "y": -0.0054,
              "z": -0.4354
            }
          },
          {
            "elSymbol": "Du",
            "p3d": {
              "x": -1.9744,
              "y": 0.9926,
              "z": -0.5036
            }
          }
        ],
        "bonds": [
          {
            "atomIds": [
              0,
              1
            ],
            "bo": "TRIPLE"
          },
          {
            "atomIds": [
              2,
              0
            ],
            "bo": "SINGLE"
          }
        ]
      },
      "vertexId": 81,
      "buildingBlockId": 65,
      "buildingBlockType": "FRAGMENT",
      "isRCV": false,
      "properties": {
        "ATTACHMENT_POINTS": "1#Xlig:1:SINGLE:0.0192%-0.0048%-0.5645 "
      },
      "uniquefyingPropertyKeys": [],
      "allowedMutationTypes": [
        "DELETE",
        "EXTEND",
        "CHANGEBRANCH",
        "CHANGELINK",
        "ADDLINK",
        "DELETELINK",
        "DELETECHAIN"
      ],
      "vertexType": "MolecularFragment"
    },
    {
      "lstAPs": [
        {
          "id": 260599,
          "atomPositionNumber": 0,
          "atomPositionNumberInMol": 8,
          "apClass": {
            "rule": "LIsoindolylideneSubNL",
            "subClass": 0,
            "bndTyp": "SINGLE"
          },
          "dirVec": {
            "x": 8.2611,
            "y": 13.2699,
            "z": 19.2517
          }
        },
        {
          "id": 260600,
          "atomPositionNumber": 11,
          "atomPositionNumberInMol": 19,
          "apClass": {
            "rule": "LIsoindolylideneSubCS",
            "subClass": 0,
            "bndTyp": "SINGLE"
          },
          "dirVec": {
            "x": 8.8004,
            "y": 11.8294,
            "z": 16.2112
          }
        },
        {
          "id": 260601,
          "atomPositionNumber": 11,
          "atomPositionNumberInMol": 19,
          "apClass": {
            "rule": "LIsoindolylideneSubCS",
            "subClass": 0,
            "bndTyp": "SINGLE"
          },
          "dirVec": {
            "x": 9.9911,
            "y": 10.7246,
            "z": 18.2628
          }
        },
        {
          "id": 260602,
          "atomPositionNumber": 12,
          "atomPositionNumberInMol": 20,
          "apClass": {
            "rule": "MIsoindolylidene",
            "subClass": 1,
            "bndTyp": "SINGLE"
          },
          "dirVec": {
            "x": 10.5893,
            "y": 15.7982,
            "z": 19.2952
          }
        }
      ],
      "lstSymAPs": [
        {
          "symIds": [
            1,
            2
          ]
        }
      ],
      "mol": {
        "atoms": [
          {
            "elSymbol": "N",
            "p3d": {
              "x": 9.4489,
              "y": 13.1799,
              "z": 18.2942
            }
          },
          {
            "elSymbol": "C",
            "p3d": {
              "x": 11.4201,
              "y": 13.7017,
              "z": 17.3025
            }
          },
          {
            "elSymbol": "C",
            "p3d": {
              "x": 12.5951,
              "y": 14.339,
              "z": 16.9164
            }
          },
          {
            "elSymbol": "H",
            "p3d": {
              "x": 12.8733,
              "y": 15.3,
              "z": 17.3622
            }
          },
          {
            "elSymbol": "C",
            "p3d": {
              "x": 13.4411,
              "y": 13.7204,
              "z": 15.9914
            }
          },
          {
            "elSymbol": "H",
            "p3d": {
              "x": 14.3384,
              "y": 14.2201,
              "z": 15.6587
            }
          },
          {
            "elSymbol": "C",
            "p3d": {
              "x": 13.0993,
              "y": 12.4808,
              "z": 15.4917
            }
          },
          {
            "elSymbol": "H",
            "p3d": {
              "x": 13.7585,
              "y": 11.989,
              "z": 14.7813
            }
          },
          {
            "elSymbol": "C",
            "p3d": {
              "x": 11.9512,
              "y": 11.8214,
              "z": 15.8884
            }
          },
          {
            "elSymbol": "H",
            "p3d": {
              "x": 11.7213,
              "y": 10.8277,
              "z": 15.5012
            }
          },
          {
            "elSymbol": "C",
            "p3d": {
              "x": 11.1202,
              "y": 12.434,
              "z": 16.8015
            }
          },
          {
            "elSymbol": "C",
            "p3d": {
              "x": 9.7825,
              "y": 11.9664,
              "z": 17.3844
            }
          },
          {
            "elSymbol": "C",
            "p3d": {
              "x": 10.4002,
              "y": 14.1128,
              "z": 18.2438
            }
          }
        ],
        "bonds": [
          {
            "atomIds": [
              0,
              11
            ],
            "bo": "SINGLE"
          },
          {
            "atomIds": [
              1,
              2
            ],
            "bo": "SINGLE"
          },
          {
            "atomIds": [
              2,
              3
            ],
            "bo": "SINGLE"
          },
          {
            "atomIds": [
              4,
              2
            ],
            "bo": "DOUBLE"
          },
          {
            "atomIds": [
              5,
              4
            ],
            "bo": "SINGLE"
          },
          {
            "atomIds": [
              6,
              4
            ],
            "bo": "SINGLE"
          },
          {
            "atomIds": [
              7,
              6
            ],
            "bo": "SINGLE"
          },
          {
            "atomIds": [
              8,
              6
            ],
            "bo": "DOUBLE"
          },
          {
            "atomIds": [
              9,
              8
            ],
            "bo": "SINGLE"
          },
          {
            "atomIds": [
              10,
              1
            ],
            "bo": "DOUBLE"
          },
          {
            "atomIds": [
              11,
              10
            ],
            "bo": "SINGLE"
          },
          {
            "atomIds": [
              0,
              12
            ],
            "bo": "SINGLE"
          },
          {
            "atomIds": [
              1,
              12
            ],
            "bo": "SINGLE"
          },
          {
            "atomIds": [
              8,
              10
            ],
            "bo": "SINGLE"
          }
        ]
      },
      "vertexId": 93,
      "buildingBlockId": 14,
      "buildingBlockType": "FRAGMENT",
      "isRCV": false,
      "properties": {
        "ATTACHMENT_POINTS": "1#LIsoindolylideneSubNL:0:SINGLE:8.2611%13.2699%19.2517 12#LIsoindolylideneSubCS:0:SINGLE:8.8004%11.8294%16.2112,LIsoindolylideneSubCS:0:SINGLE:9.9911%10.7246%18.2628 13#MIsoindolylidene:1:SINGLE:10.5893%15.7982%19.2952 "
      },
      "uniquefyingPropertyKeys": [],
      "allowedMutationTypes": [
        "DELETE",
        "EXTEND",
        "CHANGEBRANCH",
        "CHANGELINK",
        "ADDLINK",
        "DELETELINK",
        "DELETECHAIN"
      ],
      "vertexType": "MolecularFragment"
    },
    {
      "lstAPs": [
        {
          "id": 260603,
          "atomPositionNumber": 0,
          "atomPositionNumberInMol": 60,
          "apClass": {
            "rule": "Xlig",
            "subClass": 1,
            "bndTyp": "SINGLE"
          },
          "dirVec": {
            "x": 0.0192,
            "y": -0.0048,
            "z": -0.5645
          }
        }
      ],
      "lstSymAPs": [],
      "mol": {
        "atoms": [
          {
            "elSymbol": "C",
            "p3d": {
              "x": -1.967,
              "y": -0.0075,
              "z": -0.4937
            }
          },
          {
            "elSymbol": "N",
            "p3d": {
              "x": -3.1263,
              "y": -0.0054,
              "z": -0.4354
            }
          },
          {
            "elSymbol": "Du",
            "p3d": {
              "x": -1.9744,
              "y": 0.9926,
              "z": -0.5036
            }
          }
        ],
        "bonds": [
          {
            "atomIds": [
              0,
              1
            ],
            "bo": "TRIPLE"
          },
          {
            "atomIds": [
              2,
              0
            ],
            "bo": "SINGLE"
          }
        ]
      },
      "vertexId": 87,
      "buildingBlockId": 65,
      "buildingBlockType": "FRAGMENT",
      "isRCV": false,
      "properties": {
        "ATTACHMENT_POINTS": "1#Xlig:1:SINGLE:0.0192%-0.0048%-0.5645 "
      },
      "uniquefyingPropertyKeys": [],
      "allowedMutationTypes": [
        "DELETE",
        "EXTEND",
        "CHANGEBRANCH",
        "CHANGELINK",
        "ADDLINK",
        "DELETELINK",
        "DELETECHAIN"
      ],
      "vertexType": "MolecularFragment"
    },
    {
      "lstAPs": [
        {
          "id": 260640,
          "atomPositionNumber": 0,
          "atomPositionNumberInMol": 21,
          "apClass": {
            "rule": "LIsoindolylideneSubCS",
            "subClass": 1,
            "bndTyp": "SINGLE"
          },
          "dirVec": {
            "x": 5.5795,
            "y": 5.9633,
            "z": -0.239
          }
        }
      ],
      "lstSymAPs": [],
      "mol": {
        "atoms": [
          {
            "elSymbol": "C",
            "p3d": {
              "x": 6.4615,
              "y": 7.1721,
              "z": 0.1839
            }
          },
          {
            "elSymbol": "C",
            "p3d": {
              "x": 7.081,
              "y": 7.1629,
              "z": 1.4436
            }
          },
          {
            "elSymbol": "H",
            "p3d": {
              "x": 7.0505,
              "y": 6.276,
              "z": 2.048
            }
          },
          {
            "elSymbol": "C",
            "p3d": {
              "x": 7.7838,
              "y": 8.284,
              "z": 1.8843
            }
          },
          {
            "elSymbol": "H",
            "p3d": {
              "x": 8.252,
              "y": 8.2646,
              "z": 2.8494
            }
          },
          {
            "elSymbol": "C",
            "p3d": {
              "x": 7.8546,
              "y": 9.4183,
              "z": 1.0991
            }
          },
          {
            "elSymbol": "H",
            "p3d": {
              "x": 8.4264,
              "y": 10.2812,
              "z": 1.4367
            }
          },
          {
            "elSymbol": "C",
            "p3d": {
              "x": 7.1986,
              "y": 9.4546,
              "z": -0.132
            }
          },
          {
            "elSymbol": "H",
            "p3d": {
              "x": 7.2285,
              "y": 10.3561,
              "z": -0.7414
            }
          },
          {
            "elSymbol": "C",
            "p3d": {
              "x": 6.4815,
              "y": 8.3462,
              "z": -0.5635
            }
          },
          {
            "elSymbol": "H",
            "p3d": {
              "x": 5.9344,
              "y": 8.3796,
              "z": -1.5229
            }
          }
        ],
        "bonds": [
          {
            "atomIds": [
              1,
              0
            ],
            "bo": "SINGLE"
          },
          {
            "atomIds": [
              2,
              1
            ],
            "bo": "SINGLE"
          },
          {
            "atomIds": [
              3,
              1
            ],
            "bo": "DOUBLE"
          },
          {
            "atomIds": [
              4,
              3
            ],
            "bo": "SINGLE"
          },
          {
            "atomIds": [
              5,
              3
            ],
            "bo": "SINGLE"
          },
          {
            "atomIds": [
              6,
              5
            ],
            "bo": "SINGLE"
          },
          {
            "atomIds": [
              7,
              5
            ],
            "bo": "DOUBLE"
          },
          {
            "atomIds": [
              8,
              7
            ],
            "bo": "SINGLE"
          },
          {
            "atomIds": [
              9,
              0
            ],
            "bo": "DOUBLE"
          },
          {
            "atomIds": [
              10,
              9
            ],
            "bo": "SINGLE"
          },
          {
            "atomIds": [
              7,
              9
            ],
            "bo": "SINGLE"
          }
        ]
      },
      "vertexId": 199357,
      "buildingBlockId": 29,
      "buildingBlockType": "FRAGMENT",
      "isRCV": false,
      "properties": {
        "ATTACHMENT_POINTS": "1#LIsoindolylideneSubCS:1:SINGLE:5.5795%5.9633%-0.2390 "
      },
      "uniquefyingPropertyKeys": [],
      "allowedMutationTypes": [
        "DELETE",
        "EXTEND",
        "CHANGEBRANCH",
        "CHANGELINK",
        "ADDLINK",
        "DELETELINK",
        "DELETECHAIN"
      ],
      "vertexType": "MolecularFragment"
    },
    {
      "lstAPs": [
        {
          "id": 260641,
          "atomPositionNumber": 2,
          "atomPositionNumberInMol": 34,
          "apClass": {
            "rule": "SubArM",
            "subClass": 1,
            "bndTyp": "SINGLE"
          },
          "dirVec": {
            "x": 0.2839,
            "y": 0.3907,
            "z": -0.6271
          }
        }
      ],
      "lstSymAPs": [],
      "mol": {
        "atoms": [
          {
            "elSymbol": "H",
            "p3d": {
              "x": 1.8079,
              "y": 2.6521,
              "z": -0.6457
            }
          },
          {
            "elSymbol": "C",
            "p3d": {
              "x": 2.3292,
              "y": 1.8028,
              "z": -1.1346
            }
          },
          {
            "elSymbol": "C",
            "p3d": {
              "x": 1.6928,
              "y": 0.5701,
              "z": -1.2214
            }
          },
          {
            "elSymbol": "C",
            "p3d": {
              "x": 4.26,
              "y": 0.9161,
              "z": -2.2564
            }
          },
          {
            "elSymbol": "C",
            "p3d": {
              "x": 2.3547,
              "y": -0.5116,
              "z": -1.8205
            }
          },
          {
            "elSymbol": "C",
            "p3d": {
              "x": 3.6118,
              "y": 1.9867,
              "z": -1.654
            }
          },
          {
            "elSymbol": "C",
            "p3d": {
              "x": 3.6519,
              "y": -0.333,
              "z": -2.339
            }
          },
          {
            "elSymbol": "C",
            "p3d": {
              "x": 1.7318,
              "y": -1.7781,
              "z": -1.8989
            }
          },
          {
            "elSymbol": "H",
            "p3d": {
              "x": 4.0936,
              "y": 2.9609,
              "z": -1.5808
            }
          },
          {
            "elSymbol": "H",
            "p3d": {
              "x": 5.3077,
              "y": -1.3005,
              "z": -3.3639
            }
          },
          {
            "elSymbol": "H",
            "p3d": {
              "x": 5.2705,
              "y": 1.0583,
              "z": -2.6578
            }
          },
          {
            "elSymbol": "C",
            "p3d": {
              "x": 2.3998,
              "y": -2.8526,
              "z": -2.5007
            }
          },
          {
            "elSymbol": "H",
            "p3d": {
              "x": 0.724,
              "y": -1.9306,
              "z": -1.4908
            }
          },
          {
            "elSymbol": "H",
            "p3d": {
              "x": 1.9155,
              "y": -3.8304,
              "z": -2.576
            }
          },
          {
            "elSymbol": "C",
            "p3d": {
              "x": 3.684,
              "y": -2.6697,
              "z": -3.0355
            }
          },
          {
            "elSymbol": "H",
            "p3d": {
              "x": 4.2028,
              "y": -3.5195,
              "z": -3.4955
            }
          },
          {
            "elSymbol": "C",
            "p3d": {
              "x": 4.3092,
              "y": -1.4197,
              "z": -2.9387
            }
          }
        ],
        "bonds": [
          {
            "atomIds": [
              0,
              1
            ],
            "bo": "SINGLE"
          },
          {
            "atomIds": [
              1,
              2
            ],
            "bo": "SINGLE"
          },
          {
            "atomIds": [
              1,
              5
            ],
            "bo": "DOUBLE"
          },
          {
            "atomIds": [
              2,
              4
            ],
            "bo": "DOUBLE"
          },
          {
            "atomIds": [
              4,
              6
            ],
            "bo": "SINGLE"
          },
          {
            "atomIds": [
              3,
              5
            ],
            "bo": "SINGLE"
          },
          {
            "atomIds": [
              3,
              6
            ],
            "bo": "DOUBLE"
          },
          {
            "atomIds": [
              7,
              4
            ],
            "bo": "SINGLE"
          },
          {
            "atomIds": [
              6,
              16
            ],
            "bo": "SINGLE"
          },
          {
            "atomIds": [
              7,
              11
            ],
            "bo": "DOUBLE"
          },
          {
            "atomIds": [
              11,
              14
            ],
            "bo": "SINGLE"
          },
          {
            "atomIds": [
              14,
              16
            ],
            "bo": "DOUBLE"
          },
          {
            "atomIds": [
              3,
              10
            ],
            "bo": "SINGLE"
          },
          {
            "atomIds": [
              5,
              8
            ],
            "bo": "SINGLE"
          },
          {
            "atomIds": [
              7,
              12
            ],
            "bo": "SINGLE"
          },
          {
            "atomIds": [
              9,
              16
            ],
            "bo": "SINGLE"
          },
          {
            "atomIds": [
              14,
              15
            ],
            "bo": "SINGLE"
          },
          {
            "atomIds": [
              11,
              13
            ],
            "bo": "SINGLE"
          }
        ]
      },
      "vertexId": 198945,
      "buildingBlockId": 38,
      "buildingBlockType": "FRAGMENT",
      "isRCV": false,
      "properties": {
        "ATTACHMENT_POINTS": "3#SubArM:1:SINGLE:0.2839%0.3907%-0.6271 "
      },
      "uniquefyingPropertyKeys": [],
      "allowedMutationTypes": [
        "DELETE",
        "EXTEND",
        "CHANGEBRANCH",
        "CHANGELINK",
        "ADDLINK",
        "DELETELINK",
        "DELETECHAIN"
      ],
      "vertexType": "MolecularFragment"
    },
    {
      "lstAPs": [
        {
          "id": 260642,
          "atomPositionNumber": 0,
          "atomPositionNumberInMol": 49,
          "apClass": {
            "rule": "LIsoindolylideneSubCS",
            "subClass": 1,
            "bndTyp": "SINGLE"
          },
          "dirVec": {
            "x": 5.5795,
            "y": 5.9633,
            "z": -0.239
          }
        }
      ],
      "lstSymAPs": [],
      "mol": {
        "atoms": [
          {
            "elSymbol": "C",
            "p3d": {
              "x": 6.4615,
              "y": 7.1721,
              "z": 0.1839
            }
          },
          {
            "elSymbol": "C",
            "p3d": {
              "x": 7.081,
              "y": 7.1629,
              "z": 1.4436
            }
          },
          {
            "elSymbol": "H",
            "p3d": {
              "x": 7.0505,
              "y": 6.276,
              "z": 2.048
            }
          },
          {
            "elSymbol": "C",
            "p3d": {
              "x": 7.7838,
              "y": 8.284,
              "z": 1.8843
            }
          },
          {
            "elSymbol": "H",
            "p3d": {
              "x": 8.252,
              "y": 8.2646,
              "z": 2.8494
            }
          },
          {
            "elSymbol": "C",
            "p3d": {
              "x": 7.8546,
              "y": 9.4183,
              "z": 1.0991
            }
          },
          {
            "elSymbol": "H",
            "p3d": {
              "x": 8.4264,
              "y": 10.2812,
              "z": 1.4367
            }
          },
          {
            "elSymbol": "C",
            "p3d": {
              "x": 7.1986,
              "y": 9.4546,
              "z": -0.132
            }
          },
          {
            "elSymbol": "H",
            "p3d": {
              "x": 7.2285,
              "y": 10.3561,
              "z": -0.7414
            }
          },
          {
            "elSymbol": "C",
            "p3d": {
              "x": 6.4815,
              "y": 8.3462,
              "z": -0.5635
            }
          },
          {
            "elSymbol": "H",
            "p3d": {
              "x": 5.9344,
              "y": 8.3796,
              "z": -1.5229
            }
          }
        ],
        "bonds": [
          {
            "atomIds": [
              1,
              0
            ],
            "bo": "SINGLE"
          },
          {
            "atomIds": [
              2,
              1
            ],
            "bo": "SINGLE"
          },
          {
            "atomIds": [
              3,
              1
            ],
            "bo": "DOUBLE"
          },
          {
            "atomIds": [
              4,
              3
            ],
            "bo": "SINGLE"
          },
          {
            "atomIds": [
              5,
              3
            ],
            "bo": "SINGLE"
          },
          {
            "atomIds": [
              6,
              5
            ],
            "bo": "SINGLE"
          },
          {
            "atomIds": [
              7,
              5
            ],
            "bo": "DOUBLE"
          },
          {
            "atomIds": [
              8,
              7
            ],
            "bo": "SINGLE"
          },
          {
            "atomIds": [
              9,
              0
            ],
            "bo": "DOUBLE"
          },
          {
            "atomIds": [
              10,
              9
            ],
            "bo": "SINGLE"
          },
          {
            "atomIds": [
              7,
              9
            ],
            "bo": "SINGLE"
          }
        ]
      },
      "vertexId": 198951,
      "buildingBlockId": 29,
      "buildingBlockType": "FRAGMENT",
      "isRCV": false,
      "properties": {
        "ATTACHMENT_POINTS": "1#LIsoindolylideneSubCS:1:SINGLE:5.5795%5.9633%-0.2390 "
      },
      "uniquefyingPropertyKeys": [],
      "allowedMutationTypes": [
        "DELETE",
        "EXTEND",
        "CHANGEBRANCH",
        "CHANGELINK",
        "ADDLINK",
        "DELETELINK",
        "DELETECHAIN"
      ],
      "vertexType": "MolecularFragment"
    }
  ],
  "gEdges": [
    {
      "srcAPID": 260595,
      "trgAPID": 260598,
      "bondType": "SINGLE"
    },
    {
      "srcAPID": 260597,
      "trgAPID": 260602,
      "bondType": "SINGLE"
    },
    {
      "srcAPID": 260596,
      "trgAPID": 260603,
      "bondType": "SINGLE"
    },
    {
      "srcAPID": 260601,
      "trgAPID": 260640,
      "bondType": "SINGLE"
    },
    {
      "srcAPID": 260599,
      "trgAPID": 260641,
      "bondType": "SINGLE"
    },
    {
      "srcAPID": 260600,
      "trgAPID": 260642,
      "bondType": "SINGLE"
    }
  ],
  "gRings": [],
  "symVertices": [
    {
      "symIds": [
        199357,
        198951
      ]
    }
  ]
}

> <SMILES>
[Pt](C#O)(C#N)([C]1N(C(C2=C1C([H])=C([H])C([H])=C2[H])(C=3C([H])=C([H])C([H])=C([H])C3[H])C=4C([H])=C([H])C([H])=C([H])C4[H])C=5C([H])=C(C(=C6C5C(=C(C(=C6[H])[H])[H])[H])[H])[H])C#N

$$$$
