M00000460
  CDK     04222208483D

 22 22  0  0  0  0  0  0  0  0999 V2000
   -1.6914   -0.3614   -0.3733 Pt  0  0  0  0  0  0  0  0  0  0  0  0
   -3.6562   -0.2593   -0.4800 C   0  0  0  0  0  0  0  0  0  0  0  0
   -4.7914   -0.1965   -0.5528 O   0  0  0  0  0  0  0  0  0  0  0  0
   -1.7522    1.9282   -0.0769 S   0  0  0  0  0  0  0  0  0  0  0  0
   -1.8776    1.8901    1.7309 C   0  0  0  0  0  0  0  0  0  0  0  0
   -0.9900    2.3415    2.1859 H   0  0  0  0  0  0  0  0  0  0  0  0
   -1.9878    0.8640    2.1046 H   0  0  0  0  0  0  0  0  0  0  0  0
   -2.7540    2.4678    2.0516 H   0  0  0  0  0  0  0  0  0  0  0  0
    0.5646   -0.4179   -0.2506 P   0  0  0  0  0  0  0  0  0  0  0  0
    1.4764    0.8820   -0.9740 N   0  0  0  0  0  0  0  0  0  0  0  0
    2.4618    0.3094   -1.8355 C   0  0  0  0  0  0  0  0  0  0  0  0
    3.1659    0.9673   -2.3291 H   0  0  0  0  0  0  0  0  0  0  0  0
    2.3930   -1.0465   -1.9561 C   0  0  0  0  0  0  0  0  0  0  0  0
    3.0321   -1.6745   -2.5647 H   0  0  0  0  0  0  0  0  0  0  0  0
    1.3469   -1.6571   -1.2020 N   0  0  0  0  0  0  0  0  0  0  0  0
    1.1158   -2.6467   -1.2585 H   0  0  0  0  0  0  0  0  0  0  0  0
    1.0785   -0.6072    1.5374 C   0  0  0  0  0  0  0  0  0  0  0  0
    0.6033   -1.4919    1.9886 H   0  0  0  0  0  0  0  0  0  0  0  0
    2.1657   -0.7247    1.6392 H   0  0  0  0  0  0  0  0  0  0  0  0
    0.7783    0.2676    2.1306 H   0  0  0  0  0  0  0  0  0  0  0  0
    1.3524    1.8831   -0.8539 H   0  0  0  0  0  0  0  0  0  0  0  0
   -2.0341   -2.7170   -0.6614 Cl  0  0  0  0  0  0  0  0  0  0  0  0
  2  3  3  0  0  0  0
  1  2  1  0  0  0  0
  5  6  1  0  0  0  0
  5  7  1  0  0  0  0
  5  8  1  0  0  0  0
  4  5  1  0  0  0  0
  1  4  1  0  0  0  0
 10  9  1  0  0  0  0
 11 10  1  0  0  0  0
 12 11  1  0  0  0  0
 13 11  2  0  0  0  0
 13 15  1  0  0  0  0
 14 13  1  0  0  0  0
 15  9  1  0  0  0  0
  1  9  1  0  0  0  0
 15 16  1  0  0  0  0
 17 18  1  0  0  0  0
 17 19  1  0  0  0  0
 17 20  1  0  0  0  0
  9 17  1  0  0  0  0
 10 21  1  0  0  0  0
  1 22  1  0  0  0  0
M  END
> <PM6_ENERGY>
-178.917

> <UID>
NEGSLNSPEOACAQ-RWUCBEAWNA-L

> <FITNESS>
1.13926

> <GCODE>
989

> <GraphENC>
989 72_1_0,79_64_1,98_1_1,88_67_1,16201_1_2,16085_31_1,16100_1_2, 72_0_79_0_SINGLE_Xlig:0_Xlig:1,72_2_98_1_SINGLE_scaff:0_MBisAminoPhosphine:1,72_1_88_0_SINGLE_Xlig:0_Xlig:1,98_3_16201_0_SINGLE_LCycloBisAminoPhospholeSubN:0_hyd:1,98_0_16085_0_SINGLE_LBisAminoPhosphineSubR:0_SubRS:1,98_2_16100_0_SINGLE_LCycloBisAminoPhospholeSubN:0_hyd:1, SymmetricSet [symIds=[16201, 16100]] 

> <GraphJson>
{
  "graphId": 989,
  "gVertices": [
    {
      "lstAPs": [
        {
          "id": 22527,
          "atomPositionNumber": 0,
          "atomPositionNumberInMol": 0,
          "apClass": {
            "rule": "Xlig",
            "subClass": 0,
            "bndTyp": "SINGLE"
          },
          "dirVec": {
            "x": -2.3339,
            "y": -0.0087,
            "z": 0.8172
          }
        },
        {
          "id": 22528,
          "atomPositionNumber": 0,
          "atomPositionNumberInMol": 0,
          "apClass": {
            "rule": "Xlig",
            "subClass": 0,
            "bndTyp": "SINGLE"
          },
          "dirVec": {
            "x": 2.336,
            "y": -5.0E-4,
            "z": 0.829
          }
        },
        {
          "id": 22529,
          "atomPositionNumber": 0,
          "atomPositionNumberInMol": 0,
          "apClass": {
            "rule": "scaff",
            "subClass": 0,
            "bndTyp": "SINGLE"
          },
          "dirVec": {
            "x": -0.0095,
            "y": 0.0046,
            "z": -1.7113
          }
        }
      ],
      "lstSymAPs": [
        {
          "symIds": [
            0,
            1
          ]
        }
      ],
      "mol": {
        "atoms": [
          {
            "elSymbol": "Pt",
            "p3d": {
              "x": -0.0098,
              "y": 0.0049,
              "z": 0.6289
            }
          },
          {
            "elSymbol": "C",
            "p3d": {
              "x": -6.0E-4,
              "y": 0.0016,
              "z": 2.5609
            }
          },
          {
            "elSymbol": "O",
            "p3d": {
              "x": 0.0025,
              "y": -0.0041,
              "z": 3.6974
            }
          },
          {
            "elSymbol": "Du",
            "p3d": {
              "x": -0.007,
              "y": 1.0013,
              "z": 0.6372
            }
          },
          {
            "elSymbol": "Du",
            "p3d": {
              "x": -0.0014,
              "y": 0.9902,
              "z": 2.5698
            }
          }
        ],
        "bonds": [
          {
            "atomIds": [
              1,
              2
            ],
            "bo": "TRIPLE"
          },
          {
            "atomIds": [
              0,
              1
            ],
            "bo": "SINGLE"
          },
          {
            "atomIds": [
              3,
              0
            ],
            "bo": "SINGLE"
          },
          {
            "atomIds": [
              4,
              1
            ],
            "bo": "SINGLE"
          }
        ]
      },
      "vertexId": 72,
      "buildingBlockId": 0,
      "buildingBlockType": "SCAFFOLD",
      "isRCV": false,
      "properties": {
        "ATTACHMENT_POINTS": "1#Xlig:0:SINGLE:-2.3339%-0.0087%0.8172,Xlig:0:SINGLE:2.3360%-0.0005%0.8290,scaff:0:SINGLE:-0.0095%0.0046%-1.7113 "
      },
      "uniquefyingPropertyKeys": [],
      "allowedMutationTypes": [
        "DELETE",
        "EXTEND",
        "CHANGEBRANCH",
        "CHANGELINK",
        "ADDLINK",
        "DELETELINK",
        "DELETECHAIN"
      ],
      "vertexType": "MolecularFragment"
    },
    {
      "lstAPs": [
        {
          "id": 22530,
          "atomPositionNumber": 0,
          "atomPositionNumberInMol": 5,
          "apClass": {
            "rule": "Xlig",
            "subClass": 1,
            "bndTyp": "SINGLE"
          },
          "dirVec": {
            "x": -0.102,
            "y": 0.0185,
            "z": -1.0265
          }
        }
      ],
      "lstSymAPs": [],
      "mol": {
        "atoms": [
          {
            "elSymbol": "S",
            "p3d": {
              "x": -0.3267,
              "y": 2.3403,
              "z": -1.0022
            }
          },
          {
            "elSymbol": "C",
            "p3d": {
              "x": -0.626,
              "y": 2.4866,
              "z": 0.7805
            }
          },
          {
            "elSymbol": "H",
            "p3d": {
              "x": 0.1766,
              "y": 3.089,
              "z": 1.2414
            }
          },
          {
            "elSymbol": "H",
            "p3d": {
              "x": -0.651,
              "y": 1.5065,
              "z": 1.2643
            }
          },
          {
            "elSymbol": "H",
            "p3d": {
              "x": -1.5658,
              "y": 2.981,
              "z": 0.9515
            }
          }
        ],
        "bonds": [
          {
            "atomIds": [
              1,
              2
            ],
            "bo": "SINGLE"
          },
          {
            "atomIds": [
              1,
              3
            ],
            "bo": "SINGLE"
          },
          {
            "atomIds": [
              1,
              4
            ],
            "bo": "SINGLE"
          },
          {
            "atomIds": [
              0,
              1
            ],
            "bo": "SINGLE"
          }
        ]
      },
      "vertexId": 79,
      "buildingBlockId": 63,
      "buildingBlockType": "FRAGMENT",
      "isRCV": false,
      "properties": {
        "ATTACHMENT_POINTS": "1#Xlig:1:SINGLE:-0.1020%0.0185%-1.0265 "
      },
      "uniquefyingPropertyKeys": [],
      "allowedMutationTypes": [
        "DELETE",
        "EXTEND",
        "CHANGEBRANCH",
        "CHANGELINK",
        "ADDLINK",
        "DELETELINK",
        "DELETECHAIN"
      ],
      "vertexType": "MolecularFragment"
    },
    {
      "lstAPs": [
        {
          "id": 22531,
          "atomPositionNumber": 0,
          "atomPositionNumberInMol": 10,
          "apClass": {
            "rule": "LBisAminoPhosphineSubR",
            "subClass": 0,
            "bndTyp": "SINGLE"
          },
          "dirVec": {
            "x": 0.3903,
            "y": 10.7729,
            "z": 7.1334
          }
        },
        {
          "id": 22532,
          "atomPositionNumber": 0,
          "atomPositionNumberInMol": 10,
          "apClass": {
            "rule": "MBisAminoPhosphine",
            "subClass": 1,
            "bndTyp": "SINGLE"
          },
          "dirVec": {
            "x": 3.6116,
            "y": 11.0342,
            "z": 7.1611
          }
        },
        {
          "id": 22533,
          "atomPositionNumber": 1,
          "atomPositionNumberInMol": 11,
          "apClass": {
            "rule": "LCycloBisAminoPhospholeSubN",
            "subClass": 0,
            "bndTyp": "SINGLE"
          },
          "dirVec": {
            "x": 2.2148,
            "y": 8.0833,
            "z": 4.9044
          }
        },
        {
          "id": 22534,
          "atomPositionNumber": 6,
          "atomPositionNumberInMol": 16,
          "apClass": {
            "rule": "LCycloBisAminoPhospholeSubN",
            "subClass": 0,
            "bndTyp": "SINGLE"
          },
          "dirVec": {
            "x": 1.6922,
            "y": 13.2521,
            "z": 4.8571
          }
        }
      ],
      "lstSymAPs": [
        {
          "symIds": [
            2,
            3
          ]
        }
      ],
      "mol": {
        "atoms": [
          {
            "elSymbol": "P",
            "p3d": {
              "x": 1.8143,
              "y": 10.6855,
              "z": 5.9523
            }
          },
          {
            "elSymbol": "N",
            "p3d": {
              "x": 1.6265,
              "y": 9.4144,
              "z": 4.8677
            }
          },
          {
            "elSymbol": "C",
            "p3d": {
              "x": 1.0259,
              "y": 9.8892,
              "z": 3.6721
            }
          },
          {
            "elSymbol": "H",
            "p3d": {
              "x": 0.6933,
              "y": 9.2356,
              "z": 2.8689
            }
          },
          {
            "elSymbol": "C",
            "p3d": {
              "x": 0.9201,
              "y": 11.2066,
              "z": 3.6217
            }
          },
          {
            "elSymbol": "H",
            "p3d": {
              "x": 0.5137,
              "y": 11.7372,
              "z": 2.7731
            }
          },
          {
            "elSymbol": "N",
            "p3d": {
              "x": 1.3983,
              "y": 11.8325,
              "z": 4.7913
            }
          }
        ],
        "bonds": [
          {
            "atomIds": [
              1,
              0
            ],
            "bo": "SINGLE"
          },
          {
            "atomIds": [
              2,
              1
            ],
            "bo": "SINGLE"
          },
          {
            "atomIds": [
              3,
              2
            ],
            "bo": "SINGLE"
          },
          {
            "atomIds": [
              4,
              2
            ],
            "bo": "DOUBLE"
          },
          {
            "atomIds": [
              4,
              6
            ],
            "bo": "SINGLE"
          },
          {
            "atomIds": [
              5,
              4
            ],
            "bo": "SINGLE"
          },
          {
            "atomIds": [
              6,
              0
            ],
            "bo": "SINGLE"
          }
        ]
      },
      "vertexId": 98,
      "buildingBlockId": 0,
      "buildingBlockType": "FRAGMENT",
      "isRCV": false,
      "properties": {
        "ATTACHMENT_POINTS": "1#LBisAminoPhosphineSubR:0:SINGLE:0.3903%10.7729%7.1334,MBisAminoPhosphine:1:SINGLE:3.6116%11.0342%7.1611 2#LCycloBisAminoPhospholeSubN:0:SINGLE:2.2148%8.0833%4.9044 7#LCycloBisAminoPhospholeSubN:0:SINGLE:1.6922%13.2521%4.8571 "
      },
      "uniquefyingPropertyKeys": [],
      "allowedMutationTypes": [
        "DELETE",
        "EXTEND",
        "CHANGEBRANCH",
        "CHANGELINK",
        "ADDLINK",
        "DELETELINK",
        "DELETECHAIN"
      ],
      "vertexType": "MolecularFragment"
    },
    {
      "lstAPs": [
        {
          "id": 22535,
          "atomPositionNumber": 0,
          "atomPositionNumberInMol": 23,
          "apClass": {
            "rule": "Xlig",
            "subClass": 1,
            "bndTyp": "SINGLE"
          },
          "dirVec": {
            "x": -0.0053,
            "y": -0.0027,
            "z": 0.63
          }
        }
      ],
      "lstSymAPs": [],
      "mol": {
        "atoms": [
          {
            "elSymbol": "Cl",
            "p3d": {
              "x": 2.3243,
              "y": -0.0063,
              "z": 0.8189
            }
          }
        ],
        "bonds": []
      },
      "vertexId": 88,
      "buildingBlockId": 66,
      "buildingBlockType": "FRAGMENT",
      "isRCV": false,
      "properties": {
        "ATTACHMENT_POINTS": "1#Xlig:1:SINGLE:-0.0053%-0.0027%0.6300 "
      },
      "uniquefyingPropertyKeys": [],
      "allowedMutationTypes": [
        "DELETE",
        "EXTEND",
        "CHANGEBRANCH",
        "CHANGELINK",
        "ADDLINK",
        "DELETELINK",
        "DELETECHAIN"
      ],
      "vertexType": "MolecularFragment"
    },
    {
      "lstAPs": [
        {
          "id": 22572,
          "atomPositionNumber": 0,
          "atomPositionNumberInMol": 17,
          "apClass": {
            "rule": "hyd",
            "subClass": 1,
            "bndTyp": "SINGLE"
          },
          "dirVec": {
            "x": 0.4589,
            "y": -1.751,
            "z": 0.3869
          }
        }
      ],
      "lstSymAPs": [],
      "mol": {
        "atoms": [
          {
            "elSymbol": "H",
            "p3d": {
              "x": 0.1925,
              "y": -2.5024,
              "z": 1.1483
            }
          }
        ],
        "bonds": []
      },
      "vertexId": 16201,
      "buildingBlockId": 0,
      "buildingBlockType": "CAP",
      "isRCV": false,
      "properties": {
        "ATTACHMENT_POINTS": "1#hyd:1:SINGLE:0.4589%-1.7510%0.3869 "
      },
      "uniquefyingPropertyKeys": [],
      "allowedMutationTypes": [
        "DELETE",
        "EXTEND",
        "CHANGEBRANCH",
        "CHANGELINK",
        "ADDLINK",
        "DELETELINK",
        "DELETECHAIN"
      ],
      "vertexType": "MolecularFragment"
    },
    {
      "lstAPs": [
        {
          "id": 22573,
          "atomPositionNumber": 0,
          "atomPositionNumberInMol": 18,
          "apClass": {
            "rule": "SubRS",
            "subClass": 1,
            "bndTyp": "SINGLE"
          },
          "dirVec": {
            "x": 0.2865,
            "y": 0.3959,
            "z": -0.6387
          }
        }
      ],
      "lstSymAPs": [],
      "mol": {
        "atoms": [
          {
            "elSymbol": "C",
            "p3d": {
              "x": 0.3969,
              "y": -0.0496,
              "z": 0.8235
            }
          },
          {
            "elSymbol": "H",
            "p3d": {
              "x": -0.6146,
              "y": -0.163,
              "z": 1.2402
            }
          },
          {
            "elSymbol": "H",
            "p3d": {
              "x": 0.9335,
              "y": -0.9979,
              "z": 0.8998
            }
          },
          {
            "elSymbol": "H",
            "p3d": {
              "x": 0.9252,
              "y": 0.7237,
              "z": 1.3995
            }
          }
        ],
        "bonds": [
          {
            "atomIds": [
              0,
              1
            ],
            "bo": "SINGLE"
          },
          {
            "atomIds": [
              0,
              2
            ],
            "bo": "SINGLE"
          },
          {
            "atomIds": [
              0,
              3
            ],
            "bo": "SINGLE"
          }
        ]
      },
      "vertexId": 16085,
      "buildingBlockId": 30,
      "buildingBlockType": "FRAGMENT",
      "isRCV": false,
      "properties": {
        "ATTACHMENT_POINTS": "1#SubRS:1:SINGLE:0.2865%0.3959%-0.6387 "
      },
      "uniquefyingPropertyKeys": [],
      "allowedMutationTypes": [
        "DELETE",
        "EXTEND",
        "CHANGEBRANCH",
        "CHANGELINK",
        "ADDLINK",
        "DELETELINK",
        "DELETECHAIN"
      ],
      "vertexType": "MolecularFragment"
    },
    {
      "lstAPs": [
        {
          "id": 22574,
          "atomPositionNumber": 0,
          "atomPositionNumberInMol": 22,
          "apClass": {
            "rule": "hyd",
            "subClass": 1,
            "bndTyp": "SINGLE"
          },
          "dirVec": {
            "x": 0.4589,
            "y": -1.751,
            "z": 0.3869
          }
        }
      ],
      "lstSymAPs": [],
      "mol": {
        "atoms": [
          {
            "elSymbol": "H",
            "p3d": {
              "x": 0.1925,
              "y": -2.5024,
              "z": 1.1483
            }
          }
        ],
        "bonds": []
      },
      "vertexId": 16100,
      "buildingBlockId": 0,
      "buildingBlockType": "CAP",
      "isRCV": false,
      "properties": {
        "ATTACHMENT_POINTS": "1#hyd:1:SINGLE:0.4589%-1.7510%0.3869 "
      },
      "uniquefyingPropertyKeys": [],
      "allowedMutationTypes": [
        "DELETE",
        "EXTEND",
        "CHANGEBRANCH",
        "CHANGELINK",
        "ADDLINK",
        "DELETELINK",
        "DELETECHAIN"
      ],
      "vertexType": "MolecularFragment"
    }
  ],
  "gEdges": [
    {
      "srcAPID": 22527,
      "trgAPID": 22530,
      "bondType": "SINGLE"
    },
    {
      "srcAPID": 22529,
      "trgAPID": 22532,
      "bondType": "SINGLE"
    },
    {
      "srcAPID": 22528,
      "trgAPID": 22535,
      "bondType": "SINGLE"
    },
    {
      "srcAPID": 22534,
      "trgAPID": 22572,
      "bondType": "SINGLE"
    },
    {
      "srcAPID": 22531,
      "trgAPID": 22573,
      "bondType": "SINGLE"
    },
    {
      "srcAPID": 22533,
      "trgAPID": 22574,
      "bondType": "SINGLE"
    }
  ],
  "gRings": [],
  "symVertices": [
    {
      "symIds": [
        16201,
        16100
      ]
    }
  ]
}

> <SMILES>
[Pt](C#O)(SC([H])([H])[H])([P]1(N(C([H])=C(N1[H])[H])[H])C([H])([H])[H])Cl

$$$$
