M00003840
  CDK     04222210053D

 44 45  0  0  0  0  0  0  0  0999 V2000
    2.5620    0.3177   -0.3320 Pt  0  0  0  0  0  0  0  0  0  0  0  0
    4.4923    0.4069   -0.3911 C   0  0  0  0  0  0  0  0  0  0  0  0
    5.6341    0.4672   -0.4399 O   0  0  0  0  0  0  0  0  0  0  0  0
    2.7261   -1.7391   -0.1910 O   0  0  0  0  0  0  0  0  0  0  0  0
    2.4010   -2.3628   -1.4073 C   0  0  0  0  0  0  0  0  0  0  0  0
    2.5700   -3.4379   -1.2515 H   0  0  0  0  0  0  0  0  0  0  0  0
    3.0564   -1.9905   -2.2052 H   0  0  0  0  0  0  0  0  0  0  0  0
    1.3481   -2.1738   -1.6546 H   0  0  0  0  0  0  0  0  0  0  0  0
   -0.3078    0.0902    0.6462 N   0  0  0  0  0  0  0  0  0  0  0  0
   -0.1511    0.4993   -1.6102 C   0  0  0  0  0  0  0  0  0  0  0  0
    0.3447    0.7285   -2.8861 C   0  0  0  0  0  0  0  0  0  0  0  0
    1.4217    0.7923   -3.0623 H   0  0  0  0  0  0  0  0  0  0  0  0
   -0.5854    0.8849   -3.9293 C   0  0  0  0  0  0  0  0  0  0  0  0
   -0.2266    1.0689   -4.9425 H   0  0  0  0  0  0  0  0  0  0  0  0
   -1.9577    0.8145   -3.6806 C   0  0  0  0  0  0  0  0  0  0  0  0
   -2.6614    0.9383   -4.5052 H   0  0  0  0  0  0  0  0  0  0  0  0
   -2.4585    0.5929   -2.3819 C   0  0  0  0  0  0  0  0  0  0  0  0
   -3.5302    0.5499   -2.2055 H   0  0  0  0  0  0  0  0  0  0  0  0
   -1.5465    0.4397   -1.3541 C   0  0  0  0  0  0  0  0  0  0  0  0
   -1.7675    0.2302    0.1501 C   0  0  0  0  0  0  0  0  0  0  0  0
    0.5666    0.2827   -0.3472 C   0  0  1  0  0  0  0  0  0  0  0  0
    0.1415   -0.2476    2.0694 C   0  0  0  0  0  0  0  0  0  0  0  0
   -1.0052   -0.0707    3.0707 C   0  0  0  0  0  0  0  0  0  0  0  0
    0.6066   -1.7062    2.0470 C   0  0  0  0  0  0  0  0  0  0  0  0
    1.2960    0.6994    2.4321 C   0  0  0  0  0  0  0  0  0  0  0  0
   -1.8503   -0.7444    2.8646 H   0  0  0  0  0  0  0  0  0  0  0  0
    1.1042    1.7411    2.1372 H   0  0  0  0  0  0  0  0  0  0  0  0
    1.0207   -2.0057    3.0160 H   0  0  0  0  0  0  0  0  0  0  0  0
    1.4224   -1.8799    1.3046 H   0  0  0  0  0  0  0  0  0  0  0  0
    1.4771    0.7033    3.5144 H   0  0  0  0  0  0  0  0  0  0  0  0
    2.2548    0.3951    1.9664 H   0  0  0  0  0  0  0  0  0  0  0  0
   -0.6595   -0.3051    4.0869 H   0  0  0  0  0  0  0  0  0  0  0  0
   -1.3868    0.9593    3.0926 H   0  0  0  0  0  0  0  0  0  0  0  0
   -0.1945   -2.4059    1.7962 H   0  0  0  0  0  0  0  0  0  0  0  0
   -2.4116    1.4820    0.7392 C   0  0  0  0  0  0  0  0  0  0  0  0
   -1.8141    2.3834    0.5309 H   0  0  0  0  0  0  0  0  0  0  0  0
   -2.5382    1.4276    1.8286 H   0  0  0  0  0  0  0  0  0  0  0  0
   -3.4049    1.6518    0.3031 H   0  0  0  0  0  0  0  0  0  0  0  0
   -2.5471   -1.0486    0.4253 C   0  0  0  0  0  0  0  0  0  0  0  0
   -2.6546   -1.2438    1.5045 H   0  0  0  0  0  0  0  0  0  0  0  0
   -2.0587   -1.9285   -0.0175 H   0  0  0  0  0  0  0  0  0  0  0  0
   -3.5577   -0.9922    0.0004 H   0  0  0  0  0  0  0  0  0  0  0  0
    2.4543    2.2912   -0.3632 C   0  0  0  0  0  0  0  0  0  0  0  0
    2.3756    3.4444   -0.3680 N   0  0  0  0  0  0  0  0  0  0  0  0
  2  3  3  0  0  0  0
  1  2  1  0  0  0  0
  5  6  1  0  0  0  0
  5  7  1  0  0  0  0
  5  8  1  0  0  0  0
  4  5  1  0  0  0  0
  1  4  1  0  0  0  0
  9 20  1  0  0  0  0
 10 11  1  0  0  0  0
 11 12  1  0  0  0  0
 13 11  2  0  0  0  0
 14 13  1  0  0  0  0
 15 13  1  0  0  0  0
 16 15  1  0  0  0  0
 17 15  2  0  0  0  0
 18 17  1  0  0  0  0
 19 10  2  0  0  0  0
 20 19  1  0  0  0  0
  9 21  1  0  0  0  0
 10 21  1  0  0  0  0
 17 19  1  0  0  0  0
  1 21  1  0  0  0  0
 22 23  1  0  0  0  0
 22 24  1  0  0  0  0
 22 25  1  0  0  0  0
 23 26  1  0  0  0  0
 25 27  1  0  0  0  0
 24 28  1  0  0  0  0
 24 29  1  0  0  0  0
 25 30  1  0  0  0  0
 25 31  1  0  0  0  0
 23 32  1  0  0  0  0
 23 33  1  0  0  0  0
 24 34  1  0  0  0  0
  9 22  1  0  0  0  0
 36 35  1  0  0  0  0
 37 35  1  0  0  0  0
 38 35  1  0  0  0  0
 20 35  1  0  0  0  0
 40 39  1  0  0  0  0
 41 39  1  0  0  0  0
 42 39  1  0  0  0  0
 20 39  1  0  0  0  0
 43 44  3  0  0  0  0
  1 43  1  0  0  0  0
M  END
> <PM6_ENERGY>
-25.215

> <UID>
OWYOQNQGHKEGDR-RWWOTUBJNA-N

> <FITNESS>
1.14443

> <GCODE>
4564

> <GraphENC>
4564 72_1_0,80_65_1,93_15_1,87_66_1,89159_34_1,89167_29_1,89394_29_1, 72_0_80_0_SINGLE_Xlig:0_Xlig:1,72_2_93_3_SINGLE_scaff:0_MIsoindolylidene:1,72_1_87_0_SINGLE_Xlig:0_Xlig:1,93_0_89159_0_SINGLE_LIsoindolylideneSubNL:0_SubRL:1,93_1_89167_0_SINGLE_LIsoindolylideneSubCS:0_LIsoindolylideneSubCS:1,93_2_89394_0_SINGLE_LIsoindolylideneSubCS:0_LIsoindolylideneSubCS:1, SymmetricSet [symIds=[89167, 89394]] 

> <GraphJson>
{
  "graphId": 4564,
  "gVertices": [
    {
      "lstAPs": [
        {
          "id": 117869,
          "atomPositionNumber": 0,
          "atomPositionNumberInMol": 0,
          "apClass": {
            "rule": "Xlig",
            "subClass": 0,
            "bndTyp": "SINGLE"
          },
          "dirVec": {
            "x": -2.3339,
            "y": -0.0087,
            "z": 0.8172
          }
        },
        {
          "id": 117870,
          "atomPositionNumber": 0,
          "atomPositionNumberInMol": 0,
          "apClass": {
            "rule": "Xlig",
            "subClass": 0,
            "bndTyp": "SINGLE"
          },
          "dirVec": {
            "x": 2.336,
            "y": -5.0E-4,
            "z": 0.829
          }
        },
        {
          "id": 117871,
          "atomPositionNumber": 0,
          "atomPositionNumberInMol": 0,
          "apClass": {
            "rule": "scaff",
            "subClass": 0,
            "bndTyp": "SINGLE"
          },
          "dirVec": {
            "x": -0.0095,
            "y": 0.0046,
            "z": -1.7113
          }
        }
      ],
      "lstSymAPs": [
        {
          "symIds": [
            0,
            1
          ]
        }
      ],
      "mol": {
        "atoms": [
          {
            "elSymbol": "Pt",
            "p3d": {
              "x": -0.0098,
              "y": 0.0049,
              "z": 0.6289
            }
          },
          {
            "elSymbol": "C",
            "p3d": {
              "x": -6.0E-4,
              "y": 0.0016,
              "z": 2.5609
            }
          },
          {
            "elSymbol": "O",
            "p3d": {
              "x": 0.0025,
              "y": -0.0041,
              "z": 3.6974
            }
          },
          {
            "elSymbol": "Du",
            "p3d": {
              "x": -0.007,
              "y": 1.0013,
              "z": 0.6372
            }
          },
          {
            "elSymbol": "Du",
            "p3d": {
              "x": -0.0014,
              "y": 0.9902,
              "z": 2.5698
            }
          }
        ],
        "bonds": [
          {
            "atomIds": [
              1,
              2
            ],
            "bo": "TRIPLE"
          },
          {
            "atomIds": [
              0,
              1
            ],
            "bo": "SINGLE"
          },
          {
            "atomIds": [
              3,
              0
            ],
            "bo": "SINGLE"
          },
          {
            "atomIds": [
              4,
              1
            ],
            "bo": "SINGLE"
          }
        ]
      },
      "vertexId": 72,
      "buildingBlockId": 0,
      "buildingBlockType": "SCAFFOLD",
      "isRCV": false,
      "properties": {
        "ATTACHMENT_POINTS": "1#Xlig:0:SINGLE:-2.3339%-0.0087%0.8172,Xlig:0:SINGLE:2.3360%-0.0005%0.8290,scaff:0:SINGLE:-0.0095%0.0046%-1.7113 "
      },
      "uniquefyingPropertyKeys": [],
      "allowedMutationTypes": [
        "DELETE",
        "EXTEND",
        "CHANGEBRANCH",
        "CHANGELINK",
        "ADDLINK",
        "DELETELINK",
        "DELETECHAIN"
      ],
      "vertexType": "MolecularFragment"
    },
    {
      "lstAPs": [
        {
          "id": 117872,
          "atomPositionNumber": 0,
          "atomPositionNumberInMol": 5,
          "apClass": {
            "rule": "Xlig",
            "subClass": 1,
            "bndTyp": "SINGLE"
          },
          "dirVec": {
            "x": -0.1753,
            "y": 0.0948,
            "z": -0.4464
          }
        }
      ],
      "lstSymAPs": [],
      "mol": {
        "atoms": [
          {
            "elSymbol": "O",
            "p3d": {
              "x": -0.3534,
              "y": 2.1044,
              "z": -0.7339
            }
          },
          {
            "elSymbol": "C",
            "p3d": {
              "x": -0.5345,
              "y": 2.7646,
              "z": 0.4801
            }
          },
          {
            "elSymbol": "H",
            "p3d": {
              "x": -0.3728,
              "y": 3.8337,
              "z": 0.2724
            }
          },
          {
            "elSymbol": "H",
            "p3d": {
              "x": 0.1816,
              "y": 2.4161,
              "z": 1.2384
            }
          },
          {
            "elSymbol": "H",
            "p3d": {
              "x": -1.553,
              "y": 2.6149,
              "z": 0.8489
            }
          }
        ],
        "bonds": [
          {
            "atomIds": [
              1,
              2
            ],
            "bo": "SINGLE"
          },
          {
            "atomIds": [
              1,
              3
            ],
            "bo": "SINGLE"
          },
          {
            "atomIds": [
              1,
              4
            ],
            "bo": "SINGLE"
          },
          {
            "atomIds": [
              0,
              1
            ],
            "bo": "SINGLE"
          }
        ]
      },
      "vertexId": 80,
      "buildingBlockId": 64,
      "buildingBlockType": "FRAGMENT",
      "isRCV": false,
      "properties": {
        "ATTACHMENT_POINTS": "1#Xlig:1:SINGLE:-0.1753%0.0948%-0.4464 "
      },
      "uniquefyingPropertyKeys": [],
      "allowedMutationTypes": [
        "DELETE",
        "EXTEND",
        "CHANGEBRANCH",
        "CHANGELINK",
        "ADDLINK",
        "DELETELINK",
        "DELETECHAIN"
      ],
      "vertexType": "MolecularFragment"
    },
    {
      "lstAPs": [
        {
          "id": 117873,
          "atomPositionNumber": 0,
          "atomPositionNumberInMol": 10,
          "apClass": {
            "rule": "LIsoindolylideneSubNL",
            "subClass": 0,
            "bndTyp": "SINGLE"
          },
          "dirVec": {
            "x": 8.2611,
            "y": 13.2699,
            "z": 19.2517
          }
        },
        {
          "id": 117874,
          "atomPositionNumber": 11,
          "atomPositionNumberInMol": 21,
          "apClass": {
            "rule": "LIsoindolylideneSubCS",
            "subClass": 0,
            "bndTyp": "SINGLE"
          },
          "dirVec": {
            "x": 8.8004,
            "y": 11.8294,
            "z": 16.2112
          }
        },
        {
          "id": 117875,
          "atomPositionNumber": 11,
          "atomPositionNumberInMol": 21,
          "apClass": {
            "rule": "LIsoindolylideneSubCS",
            "subClass": 0,
            "bndTyp": "SINGLE"
          },
          "dirVec": {
            "x": 9.9911,
            "y": 10.7246,
            "z": 18.2628
          }
        },
        {
          "id": 117876,
          "atomPositionNumber": 12,
          "atomPositionNumberInMol": 22,
          "apClass": {
            "rule": "MIsoindolylidene",
            "subClass": 1,
            "bndTyp": "SINGLE"
          },
          "dirVec": {
            "x": 10.5893,
            "y": 15.7982,
            "z": 19.2952
          }
        }
      ],
      "lstSymAPs": [
        {
          "symIds": [
            1,
            2
          ]
        }
      ],
      "mol": {
        "atoms": [
          {
            "elSymbol": "N",
            "p3d": {
              "x": 9.4489,
              "y": 13.1799,
              "z": 18.2942
            }
          },
          {
            "elSymbol": "C",
            "p3d": {
              "x": 11.4201,
              "y": 13.7017,
              "z": 17.3025
            }
          },
          {
            "elSymbol": "C",
            "p3d": {
              "x": 12.5951,
              "y": 14.339,
              "z": 16.9164
            }
          },
          {
            "elSymbol": "H",
            "p3d": {
              "x": 12.8733,
              "y": 15.3,
              "z": 17.3622
            }
          },
          {
            "elSymbol": "C",
            "p3d": {
              "x": 13.4411,
              "y": 13.7204,
              "z": 15.9914
            }
          },
          {
            "elSymbol": "H",
            "p3d": {
              "x": 14.3384,
              "y": 14.2201,
              "z": 15.6587
            }
          },
          {
            "elSymbol": "C",
            "p3d": {
              "x": 13.0993,
              "y": 12.4808,
              "z": 15.4917
            }
          },
          {
            "elSymbol": "H",
            "p3d": {
              "x": 13.7585,
              "y": 11.989,
              "z": 14.7813
            }
          },
          {
            "elSymbol": "C",
            "p3d": {
              "x": 11.9512,
              "y": 11.8214,
              "z": 15.8884
            }
          },
          {
            "elSymbol": "H",
            "p3d": {
              "x": 11.7213,
              "y": 10.8277,
              "z": 15.5012
            }
          },
          {
            "elSymbol": "C",
            "p3d": {
              "x": 11.1202,
              "y": 12.434,
              "z": 16.8015
            }
          },
          {
            "elSymbol": "C",
            "p3d": {
              "x": 9.7825,
              "y": 11.9664,
              "z": 17.3844
            }
          },
          {
            "elSymbol": "C",
            "p3d": {
              "x": 10.4002,
              "y": 14.1128,
              "z": 18.2438
            }
          }
        ],
        "bonds": [
          {
            "atomIds": [
              0,
              11
            ],
            "bo": "SINGLE"
          },
          {
            "atomIds": [
              1,
              2
            ],
            "bo": "SINGLE"
          },
          {
            "atomIds": [
              2,
              3
            ],
            "bo": "SINGLE"
          },
          {
            "atomIds": [
              4,
              2
            ],
            "bo": "DOUBLE"
          },
          {
            "atomIds": [
              5,
              4
            ],
            "bo": "SINGLE"
          },
          {
            "atomIds": [
              6,
              4
            ],
            "bo": "SINGLE"
          },
          {
            "atomIds": [
              7,
              6
            ],
            "bo": "SINGLE"
          },
          {
            "atomIds": [
              8,
              6
            ],
            "bo": "DOUBLE"
          },
          {
            "atomIds": [
              9,
              8
            ],
            "bo": "SINGLE"
          },
          {
            "atomIds": [
              10,
              1
            ],
            "bo": "DOUBLE"
          },
          {
            "atomIds": [
              11,
              10
            ],
            "bo": "SINGLE"
          },
          {
            "atomIds": [
              0,
              12
            ],
            "bo": "SINGLE"
          },
          {
            "atomIds": [
              1,
              12
            ],
            "bo": "SINGLE"
          },
          {
            "atomIds": [
              8,
              10
            ],
            "bo": "SINGLE"
          }
        ]
      },
      "vertexId": 93,
      "buildingBlockId": 14,
      "buildingBlockType": "FRAGMENT",
      "isRCV": false,
      "properties": {
        "ATTACHMENT_POINTS": "1#LIsoindolylideneSubNL:0:SINGLE:8.2611%13.2699%19.2517 12#LIsoindolylideneSubCS:0:SINGLE:8.8004%11.8294%16.2112,LIsoindolylideneSubCS:0:SINGLE:9.9911%10.7246%18.2628 13#MIsoindolylidene:1:SINGLE:10.5893%15.7982%19.2952 "
      },
      "uniquefyingPropertyKeys": [],
      "allowedMutationTypes": [
        "DELETE",
        "EXTEND",
        "CHANGEBRANCH",
        "CHANGELINK",
        "ADDLINK",
        "DELETELINK",
        "DELETECHAIN"
      ],
      "vertexType": "MolecularFragment"
    },
    {
      "lstAPs": [
        {
          "id": 117877,
          "atomPositionNumber": 0,
          "atomPositionNumberInMol": 44,
          "apClass": {
            "rule": "Xlig",
            "subClass": 1,
            "bndTyp": "SINGLE"
          },
          "dirVec": {
            "x": 0.0192,
            "y": -0.0048,
            "z": -0.5645
          }
        }
      ],
      "lstSymAPs": [],
      "mol": {
        "atoms": [
          {
            "elSymbol": "C",
            "p3d": {
              "x": -1.967,
              "y": -0.0075,
              "z": -0.4937
            }
          },
          {
            "elSymbol": "N",
            "p3d": {
              "x": -3.1263,
              "y": -0.0054,
              "z": -0.4354
            }
          },
          {
            "elSymbol": "Du",
            "p3d": {
              "x": -1.9744,
              "y": 0.9926,
              "z": -0.5036
            }
          }
        ],
        "bonds": [
          {
            "atomIds": [
              0,
              1
            ],
            "bo": "TRIPLE"
          },
          {
            "atomIds": [
              2,
              0
            ],
            "bo": "SINGLE"
          }
        ]
      },
      "vertexId": 87,
      "buildingBlockId": 65,
      "buildingBlockType": "FRAGMENT",
      "isRCV": false,
      "properties": {
        "ATTACHMENT_POINTS": "1#Xlig:1:SINGLE:0.0192%-0.0048%-0.5645 "
      },
      "uniquefyingPropertyKeys": [],
      "allowedMutationTypes": [
        "DELETE",
        "EXTEND",
        "CHANGEBRANCH",
        "CHANGELINK",
        "ADDLINK",
        "DELETELINK",
        "DELETECHAIN"
      ],
      "vertexType": "MolecularFragment"
    },
    {
      "lstAPs": [
        {
          "id": 117914,
          "atomPositionNumber": 0,
          "atomPositionNumberInMol": 23,
          "apClass": {
            "rule": "SubRL",
            "subClass": 1,
            "bndTyp": "SINGLE"
          },
          "dirVec": {
            "x": 0.2857,
            "y": 0.39,
            "z": -0.6426
          }
        }
      ],
      "lstSymAPs": [],
      "mol": {
        "atoms": [
          {
            "elSymbol": "C",
            "p3d": {
              "x": 0.3842,
              "y": -0.0523,
              "z": 0.8329
            }
          },
          {
            "elSymbol": "C",
            "p3d": {
              "x": -0.6709,
              "y": 0.6882,
              "z": 1.6615
            }
          },
          {
            "elSymbol": "C",
            "p3d": {
              "x": 0.1554,
              "y": -1.558,
              "z": 0.9277
            }
          },
          {
            "elSymbol": "C",
            "p3d": {
              "x": 1.7886,
              "y": 0.2826,
              "z": 1.3761
            }
          },
          {
            "elSymbol": "H",
            "p3d": {
              "x": -0.5899,
              "y": 0.3841,
              "z": 2.6969
            }
          },
          {
            "elSymbol": "H",
            "p3d": {
              "x": 1.8617,
              "y": -0.0274,
              "z": 2.4067
            }
          },
          {
            "elSymbol": "H",
            "p3d": {
              "x": 0.2289,
              "y": -1.8635,
              "z": 1.9737
            }
          },
          {
            "elSymbol": "H",
            "p3d": {
              "x": 0.8983,
              "y": -2.0943,
              "z": 0.3332
            }
          },
          {
            "elSymbol": "H",
            "p3d": {
              "x": 2.5395,
              "y": -0.2409,
              "z": 0.7751
            }
          },
          {
            "elSymbol": "H",
            "p3d": {
              "x": 1.9553,
              "y": 1.3543,
              "z": 1.294
            }
          },
          {
            "elSymbol": "H",
            "p3d": {
              "x": -0.4937,
              "y": 1.7723,
              "z": 1.5856
            }
          },
          {
            "elSymbol": "H",
            "p3d": {
              "x": -1.6541,
              "y": 0.4601,
              "z": 1.2602
            }
          },
          {
            "elSymbol": "H",
            "p3d": {
              "x": -0.8514,
              "y": -1.792,
              "z": 0.5518
            }
          }
        ],
        "bonds": [
          {
            "atomIds": [
              0,
              1
            ],
            "bo": "SINGLE"
          },
          {
            "atomIds": [
              0,
              2
            ],
            "bo": "SINGLE"
          },
          {
            "atomIds": [
              0,
              3
            ],
            "bo": "SINGLE"
          },
          {
            "atomIds": [
              1,
              4
            ],
            "bo": "SINGLE"
          },
          {
            "atomIds": [
              3,
              5
            ],
            "bo": "SINGLE"
          },
          {
            "atomIds": [
              2,
              6
            ],
            "bo": "SINGLE"
          },
          {
            "atomIds": [
              2,
              7
            ],
            "bo": "SINGLE"
          },
          {
            "atomIds": [
              3,
              8
            ],
            "bo": "SINGLE"
          },
          {
            "atomIds": [
              3,
              9
            ],
            "bo": "SINGLE"
          },
          {
            "atomIds": [
              1,
              10
            ],
            "bo": "SINGLE"
          },
          {
            "atomIds": [
              1,
              11
            ],
            "bo": "SINGLE"
          },
          {
            "atomIds": [
              2,
              12
            ],
            "bo": "SINGLE"
          }
        ]
      },
      "vertexId": 89159,
      "buildingBlockId": 33,
      "buildingBlockType": "FRAGMENT",
      "isRCV": false,
      "properties": {
        "ATTACHMENT_POINTS": "1#SubRL:1:SINGLE:0.2857%0.3900%-0.6426 "
      },
      "uniquefyingPropertyKeys": [],
      "allowedMutationTypes": [
        "DELETE",
        "EXTEND",
        "CHANGEBRANCH",
        "CHANGELINK",
        "ADDLINK",
        "DELETELINK",
        "DELETECHAIN"
      ],
      "vertexType": "MolecularFragment"
    },
    {
      "lstAPs": [
        {
          "id": 117915,
          "atomPositionNumber": 0,
          "atomPositionNumberInMol": 36,
          "apClass": {
            "rule": "LIsoindolylideneSubCS",
            "subClass": 1,
            "bndTyp": "SINGLE"
          },
          "dirVec": {
            "x": -0.025,
            "y": 17.9977,
            "z": 6.198
          }
        }
      ],
      "lstSymAPs": [],
      "mol": {
        "atoms": [
          {
            "elSymbol": "C",
            "p3d": {
              "x": -1.0726,
              "y": 17.7752,
              "z": 7.3038
            }
          },
          {
            "elSymbol": "H",
            "p3d": {
              "x": -1.9064,
              "y": 17.1937,
              "z": 6.9026
            }
          },
          {
            "elSymbol": "H",
            "p3d": {
              "x": -1.4256,
              "y": 18.7349,
              "z": 7.6795
            }
          },
          {
            "elSymbol": "H",
            "p3d": {
              "x": -0.6103,
              "y": 17.2081,
              "z": 8.1194
            }
          }
        ],
        "bonds": [
          {
            "atomIds": [
              1,
              0
            ],
            "bo": "SINGLE"
          },
          {
            "atomIds": [
              2,
              0
            ],
            "bo": "SINGLE"
          },
          {
            "atomIds": [
              3,
              0
            ],
            "bo": "SINGLE"
          }
        ]
      },
      "vertexId": 89167,
      "buildingBlockId": 28,
      "buildingBlockType": "FRAGMENT",
      "isRCV": false,
      "properties": {
        "ATTACHMENT_POINTS": "1#LIsoindolylideneSubCS:1:SINGLE:-0.0250%17.9977%6.1980 "
      },
      "uniquefyingPropertyKeys": [],
      "allowedMutationTypes": [
        "DELETE",
        "EXTEND",
        "CHANGEBRANCH",
        "CHANGELINK",
        "ADDLINK",
        "DELETELINK",
        "DELETECHAIN"
      ],
      "vertexType": "MolecularFragment"
    },
    {
      "lstAPs": [
        {
          "id": 117916,
          "atomPositionNumber": 0,
          "atomPositionNumberInMol": 40,
          "apClass": {
            "rule": "LIsoindolylideneSubCS",
            "subClass": 1,
            "bndTyp": "SINGLE"
          },
          "dirVec": {
            "x": -0.025,
            "y": 17.9977,
            "z": 6.198
          }
        }
      ],
      "lstSymAPs": [],
      "mol": {
        "atoms": [
          {
            "elSymbol": "C",
            "p3d": {
              "x": -1.0726,
              "y": 17.7752,
              "z": 7.3038
            }
          },
          {
            "elSymbol": "H",
            "p3d": {
              "x": -1.9064,
              "y": 17.1937,
              "z": 6.9026
            }
          },
          {
            "elSymbol": "H",
            "p3d": {
              "x": -1.4256,
              "y": 18.7349,
              "z": 7.6795
            }
          },
          {
            "elSymbol": "H",
            "p3d": {
              "x": -0.6103,
              "y": 17.2081,
              "z": 8.1194
            }
          }
        ],
        "bonds": [
          {
            "atomIds": [
              1,
              0
            ],
            "bo": "SINGLE"
          },
          {
            "atomIds": [
              2,
              0
            ],
            "bo": "SINGLE"
          },
          {
            "atomIds": [
              3,
              0
            ],
            "bo": "SINGLE"
          }
        ]
      },
      "vertexId": 89394,
      "buildingBlockId": 28,
      "buildingBlockType": "FRAGMENT",
      "isRCV": false,
      "properties": {
        "ATTACHMENT_POINTS": "1#LIsoindolylideneSubCS:1:SINGLE:-0.0250%17.9977%6.1980 "
      },
      "uniquefyingPropertyKeys": [],
      "allowedMutationTypes": [
        "DELETE",
        "EXTEND",
        "CHANGEBRANCH",
        "CHANGELINK",
        "ADDLINK",
        "DELETELINK",
        "DELETECHAIN"
      ],
      "vertexType": "MolecularFragment"
    }
  ],
  "gEdges": [
    {
      "srcAPID": 117869,
      "trgAPID": 117872,
      "bondType": "SINGLE"
    },
    {
      "srcAPID": 117871,
      "trgAPID": 117876,
      "bondType": "SINGLE"
    },
    {
      "srcAPID": 117870,
      "trgAPID": 117877,
      "bondType": "SINGLE"
    },
    {
      "srcAPID": 117873,
      "trgAPID": 117914,
      "bondType": "SINGLE"
    },
    {
      "srcAPID": 117874,
      "trgAPID": 117915,
      "bondType": "SINGLE"
    },
    {
      "srcAPID": 117875,
      "trgAPID": 117916,
      "bondType": "SINGLE"
    }
  ],
  "gRings": [],
  "symVertices": [
    {
      "symIds": [
        89167,
        89394
      ]
    }
  ]
}

> <SMILES>
[Pt](C#O)(OC([H])([H])[H])([C]1N(C(C2=C1C([H])=C([H])C([H])=C2[H])(C([H])([H])[H])C([H])([H])[H])C(C([H])([H])[H])(C([H])([H])[H])C([H])([H])[H])C#N

$$$$
