M00000369
  CDK     04222208463D

 52 54  0  0  0  0  0  0  0  0999 V2000
    2.4931    0.7233    0.1595 Pt  0  0  0  0  0  0  0  0  0  0  0  0
    4.4099    0.9037    0.1661 C   0  0  0  0  0  0  0  0  0  0  0  0
    5.5497    0.9947    0.1632 O   0  0  0  0  0  0  0  0  0  0  0  0
    2.7191   -1.5596    0.0915 S   0  0  0  0  0  0  0  0  0  0  0  0
    2.7359   -1.8806    1.8745 C   0  0  0  0  0  0  0  0  0  0  0  0
    1.8984   -2.5327    2.1458 H   0  0  0  0  0  0  0  0  0  0  0  0
    2.6515   -0.9514    2.4518 H   0  0  0  0  0  0  0  0  0  0  0  0
    3.6699   -2.3819    2.1530 H   0  0  0  0  0  0  0  0  0  0  0  0
   -0.1951    0.1708   -1.0353 N   0  0  0  0  0  0  0  0  0  0  0  0
   -0.3782    0.5114    1.1849 N   0  0  0  0  0  0  0  0  0  0  0  0
    0.4937    0.4529    0.1228 C   0  0  1  0  0  0  0  0  0  0  0  0
   -1.6864   -0.0269   -0.7894 C   0  0  0  0  0  0  0  0  0  0  0  0
   -1.7994    0.3651    0.7213 C   0  0  0  0  0  0  0  0  0  0  0  0
   -2.3322   -0.4097    1.3101 H   0  0  0  0  0  0  0  0  0  0  0  0
   -2.3346    1.3283    0.8667 H   0  0  0  0  0  0  0  0  0  0  0  0
   -3.9628    0.9464   -1.4564 C   0  0  0  0  0  0  0  0  0  0  0  0
   -2.4592    0.9499   -1.6994 C   0  0  0  0  0  0  0  0  0  0  0  0
   -4.2201    1.2005   -0.4219 H   0  0  0  0  0  0  0  0  0  0  0  0
   -4.4580    1.6886   -2.0983 H   0  0  0  0  0  0  0  0  0  0  0  0
   -4.4178   -0.0249   -1.6847 H   0  0  0  0  0  0  0  0  0  0  0  0
   -2.2519    0.7066   -2.7636 H   0  0  0  0  0  0  0  0  0  0  0  0
   -2.0608    1.9792   -1.5625 H   0  0  0  0  0  0  0  0  0  0  0  0
   -0.0695    0.6764    2.5791 C   0  0  0  0  0  0  0  0  0  0  0  0
    0.4849    0.9773    5.3079 C   0  0  0  0  0  0  0  0  0  0  0  0
   -1.0293    0.2958    3.5385 C   0  0  0  0  0  0  0  0  0  0  0  0
    1.1683    1.2038    2.9867 C   0  0  0  0  0  0  0  0  0  0  0  0
    1.4326    1.3512    4.3508 C   0  0  0  0  0  0  0  0  0  0  0  0
   -0.7430    0.4516    4.8958 C   0  0  0  0  0  0  0  0  0  0  0  0
   -1.9879   -0.1230    3.2413 H   0  0  0  0  0  0  0  0  0  0  0  0
    1.9227    1.5327    2.2598 H   0  0  0  0  0  0  0  0  0  0  0  0
    2.3895    1.7716    4.6658 H   0  0  0  0  0  0  0  0  0  0  0  0
   -1.4862    0.1593    5.6380 H   0  0  0  0  0  0  0  0  0  0  0  0
    0.7006    1.0991    6.3678 H   0  0  0  0  0  0  0  0  0  0  0  0
   -1.3029   -2.5163   -0.2480 C   0  0  0  0  0  0  0  0  0  0  0  0
   -2.1269   -1.4886   -1.0123 C   0  0  0  0  0  0  0  0  0  0  0  0
   -0.2352   -2.4717   -0.5184 H   0  0  0  0  0  0  0  0  0  0  0  0
   -1.3559   -2.3767    0.8373 H   0  0  0  0  0  0  0  0  0  0  0  0
   -1.6443   -3.5357   -0.4637 H   0  0  0  0  0  0  0  0  0  0  0  0
   -2.0839   -1.7242   -2.1011 H   0  0  0  0  0  0  0  0  0  0  0  0
   -3.1970   -1.5814   -0.7354 H   0  0  0  0  0  0  0  0  0  0  0  0
    0.4383    0.0801   -2.3330 C   0  0  0  0  0  0  0  0  0  0  0  0
    1.6769   -0.0568   -4.8383 C   0  0  0  0  0  0  0  0  0  0  0  0
    0.0427   -0.9020   -3.2562 C   0  0  0  0  0  0  0  0  0  0  0  0
    1.4513    1.0005   -2.6632 C   0  0  0  0  0  0  0  0  0  0  0  0
    2.0653    0.9196   -3.9156 C   0  0  0  0  0  0  0  0  0  0  0  0
    0.6659   -0.9623   -4.5046 C   0  0  0  0  0  0  0  0  0  0  0  0
   -0.7328   -1.6296   -3.0045 H   0  0  0  0  0  0  0  0  0  0  0  0
    1.7484    1.7972   -1.9693 H   0  0  0  0  0  0  0  0  0  0  0  0
    2.8525    1.6307   -4.1716 H   0  0  0  0  0  0  0  0  0  0  0  0
    0.3635   -1.7280   -5.2190 H   0  0  0  0  0  0  0  0  0  0  0  0
    2.1622   -0.1125   -5.8112 H   0  0  0  0  0  0  0  0  0  0  0  0
    2.3642    3.1081    0.1967 Cl  0  0  0  0  0  0  0  0  0  0  0  0
  2  3  3  0  0  0  0
  1  2  1  0  0  0  0
  5  6  1  0  0  0  0
  5  7  1  0  0  0  0
  5  8  1  0  0  0  0
  4  5  1  0  0  0  0
  1  4  1  0  0  0  0
  9 11  1  0  0  0  0
 10 11  1  0  0  0  0
 12  9  1  0  0  0  0
 12 13  1  0  0  0  0
 13 10  1  0  0  0  0
 14 13  1  0  0  0  0
 15 13  1  0  0  0  0
  1 11  1  0  0  0  0
 16 17  1  0  0  0  0
 16 18  1  0  0  0  0
 16 19  1  0  0  0  0
 16 20  1  0  0  0  0
 17 21  1  0  0  0  0
 17 22  1  0  0  0  0
 12 17  1  0  0  0  0
 23 26  1  0  0  0  0
 26 27  2  0  0  0  0
 24 27  1  0  0  0  0
 24 28  2  0  0  0  0
 25 28  1  0  0  0  0
 23 25  2  0  0  0  0
 27 31  1  0  0  0  0
 28 32  1  0  0  0  0
 24 33  1  0  0  0  0
 25 29  1  0  0  0  0
 26 30  1  0  0  0  0
 10 23  1  0  0  0  0
 34 35  1  0  0  0  0
 34 36  1  0  0  0  0
 34 37  1  0  0  0  0
 34 38  1  0  0  0  0
 35 39  1  0  0  0  0
 35 40  1  0  0  0  0
 12 35  1  0  0  0  0
 41 44  1  0  0  0  0
 44 45  2  0  0  0  0
 42 45  1  0  0  0  0
 42 46  2  0  0  0  0
 43 46  1  0  0  0  0
 41 43  2  0  0  0  0
 45 49  1  0  0  0  0
 46 50  1  0  0  0  0
 42 51  1  0  0  0  0
 43 47  1  0  0  0  0
 44 48  1  0  0  0  0
  9 41  1  0  0  0  0
  1 52  1  0  0  0  0
M  END
> <PM6_ENERGY>
37.452

> <UID>
BKZBKGDNBFQJNV-PBKVDSNHNA-L

> <FITNESS>
1.14343

> <GCODE>
898

> <GraphENC>
898 72_1_0,79_64_1,95_17_1,88_67_1,13931_32_1,13932_36_1,13593_32_1,13585_36_1, 72_0_79_0_SINGLE_Xlig:0_Xlig:1,72_2_95_2_SINGLE_scaff:0_MImidazolidinylidene:1,72_1_88_0_SINGLE_Xlig:0_Xlig:1,95_4_13931_0_SINGLE_LImidazolidinylideneSubCS:0_SubRS:1,95_1_13932_0_SINGLE_LImidazolidinylideneSubNL:0_SubArS:1,95_3_13593_0_SINGLE_LImidazolidinylideneSubCS:0_SubRS:1,95_0_13585_0_SINGLE_LImidazolidinylideneSubNL:0_SubArS:1, SymmetricSet [symIds=[13932, 13585]] SymmetricSet [symIds=[13931, 13593]] 

> <GraphJson>
{
  "graphId": 898,
  "gVertices": [
    {
      "lstAPs": [
        {
          "id": 19750,
          "atomPositionNumber": 0,
          "atomPositionNumberInMol": 0,
          "apClass": {
            "rule": "Xlig",
            "subClass": 0,
            "bndTyp": "SINGLE"
          },
          "dirVec": {
            "x": -2.3339,
            "y": -0.0087,
            "z": 0.8172
          }
        },
        {
          "id": 19751,
          "atomPositionNumber": 0,
          "atomPositionNumberInMol": 0,
          "apClass": {
            "rule": "Xlig",
            "subClass": 0,
            "bndTyp": "SINGLE"
          },
          "dirVec": {
            "x": 2.336,
            "y": -5.0E-4,
            "z": 0.829
          }
        },
        {
          "id": 19752,
          "atomPositionNumber": 0,
          "atomPositionNumberInMol": 0,
          "apClass": {
            "rule": "scaff",
            "subClass": 0,
            "bndTyp": "SINGLE"
          },
          "dirVec": {
            "x": -0.0095,
            "y": 0.0046,
            "z": -1.7113
          }
        }
      ],
      "lstSymAPs": [
        {
          "symIds": [
            0,
            1
          ]
        }
      ],
      "mol": {
        "atoms": [
          {
            "elSymbol": "Pt",
            "p3d": {
              "x": -0.0098,
              "y": 0.0049,
              "z": 0.6289
            }
          },
          {
            "elSymbol": "C",
            "p3d": {
              "x": -6.0E-4,
              "y": 0.0016,
              "z": 2.5609
            }
          },
          {
            "elSymbol": "O",
            "p3d": {
              "x": 0.0025,
              "y": -0.0041,
              "z": 3.6974
            }
          },
          {
            "elSymbol": "Du",
            "p3d": {
              "x": -0.007,
              "y": 1.0013,
              "z": 0.6372
            }
          },
          {
            "elSymbol": "Du",
            "p3d": {
              "x": -0.0014,
              "y": 0.9902,
              "z": 2.5698
            }
          }
        ],
        "bonds": [
          {
            "atomIds": [
              1,
              2
            ],
            "bo": "TRIPLE"
          },
          {
            "atomIds": [
              0,
              1
            ],
            "bo": "SINGLE"
          },
          {
            "atomIds": [
              3,
              0
            ],
            "bo": "SINGLE"
          },
          {
            "atomIds": [
              4,
              1
            ],
            "bo": "SINGLE"
          }
        ]
      },
      "vertexId": 72,
      "buildingBlockId": 0,
      "buildingBlockType": "SCAFFOLD",
      "isRCV": false,
      "properties": {
        "ATTACHMENT_POINTS": "1#Xlig:0:SINGLE:-2.3339%-0.0087%0.8172,Xlig:0:SINGLE:2.3360%-0.0005%0.8290,scaff:0:SINGLE:-0.0095%0.0046%-1.7113 "
      },
      "uniquefyingPropertyKeys": [],
      "allowedMutationTypes": [
        "DELETE",
        "EXTEND",
        "CHANGEBRANCH",
        "CHANGELINK",
        "ADDLINK",
        "DELETELINK",
        "DELETECHAIN"
      ],
      "vertexType": "MolecularFragment"
    },
    {
      "lstAPs": [
        {
          "id": 19753,
          "atomPositionNumber": 0,
          "atomPositionNumberInMol": 5,
          "apClass": {
            "rule": "Xlig",
            "subClass": 1,
            "bndTyp": "SINGLE"
          },
          "dirVec": {
            "x": -0.102,
            "y": 0.0185,
            "z": -1.0265
          }
        }
      ],
      "lstSymAPs": [],
      "mol": {
        "atoms": [
          {
            "elSymbol": "S",
            "p3d": {
              "x": -0.3267,
              "y": 2.3403,
              "z": -1.0022
            }
          },
          {
            "elSymbol": "C",
            "p3d": {
              "x": -0.626,
              "y": 2.4866,
              "z": 0.7805
            }
          },
          {
            "elSymbol": "H",
            "p3d": {
              "x": 0.1766,
              "y": 3.089,
              "z": 1.2414
            }
          },
          {
            "elSymbol": "H",
            "p3d": {
              "x": -0.651,
              "y": 1.5065,
              "z": 1.2643
            }
          },
          {
            "elSymbol": "H",
            "p3d": {
              "x": -1.5658,
              "y": 2.981,
              "z": 0.9515
            }
          }
        ],
        "bonds": [
          {
            "atomIds": [
              1,
              2
            ],
            "bo": "SINGLE"
          },
          {
            "atomIds": [
              1,
              3
            ],
            "bo": "SINGLE"
          },
          {
            "atomIds": [
              1,
              4
            ],
            "bo": "SINGLE"
          },
          {
            "atomIds": [
              0,
              1
            ],
            "bo": "SINGLE"
          }
        ]
      },
      "vertexId": 79,
      "buildingBlockId": 63,
      "buildingBlockType": "FRAGMENT",
      "isRCV": false,
      "properties": {
        "ATTACHMENT_POINTS": "1#Xlig:1:SINGLE:-0.1020%0.0185%-1.0265 "
      },
      "uniquefyingPropertyKeys": [],
      "allowedMutationTypes": [
        "DELETE",
        "EXTEND",
        "CHANGEBRANCH",
        "CHANGELINK",
        "ADDLINK",
        "DELETELINK",
        "DELETECHAIN"
      ],
      "vertexType": "MolecularFragment"
    },
    {
      "lstAPs": [
        {
          "id": 19754,
          "atomPositionNumber": 0,
          "atomPositionNumberInMol": 10,
          "apClass": {
            "rule": "LImidazolidinylideneSubNL",
            "subClass": 0,
            "bndTyp": "SINGLE"
          },
          "dirVec": {
            "x": 7.7897,
            "y": 6.0821,
            "z": 4.7152
          }
        },
        {
          "id": 19755,
          "atomPositionNumber": 1,
          "atomPositionNumberInMol": 11,
          "apClass": {
            "rule": "LImidazolidinylideneSubNL",
            "subClass": 0,
            "bndTyp": "SINGLE"
          },
          "dirVec": {
            "x": 9.2442,
            "y": 7.4469,
            "z": 0.1412
          }
        },
        {
          "id": 19756,
          "atomPositionNumber": 2,
          "atomPositionNumberInMol": 12,
          "apClass": {
            "rule": "MImidazolidinylidene",
            "subClass": 1,
            "bndTyp": "SINGLE"
          },
          "dirVec": {
            "x": 7.3678,
            "y": 8.8196,
            "z": 2.9474
          }
        },
        {
          "id": 19757,
          "atomPositionNumber": 3,
          "atomPositionNumberInMol": 13,
          "apClass": {
            "rule": "LImidazolidinylideneSubCS",
            "subClass": 0,
            "bndTyp": "SINGLE"
          },
          "dirVec": {
            "x": 8.0114,
            "y": 3.5478,
            "z": 2.786
          }
        },
        {
          "id": 19758,
          "atomPositionNumber": 3,
          "atomPositionNumberInMol": 13,
          "apClass": {
            "rule": "LImidazolidinylideneSubCS",
            "subClass": 0,
            "bndTyp": "SINGLE"
          },
          "dirVec": {
            "x": 10.1821,
            "y": 4.5337,
            "z": 3.5842
          }
        }
      ],
      "lstSymAPs": [
        {
          "symIds": [
            0,
            1
          ]
        },
        {
          "symIds": [
            3,
            4
          ]
        }
      ],
      "mol": {
        "atoms": [
          {
            "elSymbol": "N",
            "p3d": {
              "x": 8.1682,
              "y": 5.9859,
              "z": 3.3103
            }
          },
          {
            "elSymbol": "N",
            "p3d": {
              "x": 8.7358,
              "y": 6.6342,
              "z": 1.2983
            }
          },
          {
            "elSymbol": "C",
            "p3d": {
              "x": 8.1698,
              "y": 7.0264,
              "z": 2.4525
            }
          },
          {
            "elSymbol": "C",
            "p3d": {
              "x": 8.8997,
              "y": 4.8098,
              "z": 2.7919
            }
          },
          {
            "elSymbol": "C",
            "p3d": {
              "x": 9.1818,
              "y": 5.2321,
              "z": 1.3562
            }
          },
          {
            "elSymbol": "H",
            "p3d": {
              "x": 8.6243,
              "y": 4.6089,
              "z": 0.6707
            }
          },
          {
            "elSymbol": "H",
            "p3d": {
              "x": 10.2262,
              "y": 5.1361,
              "z": 1.0989
            }
          }
        ],
        "bonds": [
          {
            "atomIds": [
              0,
              2
            ],
            "bo": "SINGLE"
          },
          {
            "atomIds": [
              1,
              2
            ],
            "bo": "SINGLE"
          },
          {
            "atomIds": [
              3,
              0
            ],
            "bo": "SINGLE"
          },
          {
            "atomIds": [
              3,
              4
            ],
            "bo": "SINGLE"
          },
          {
            "atomIds": [
              4,
              1
            ],
            "bo": "SINGLE"
          },
          {
            "atomIds": [
              5,
              4
            ],
            "bo": "SINGLE"
          },
          {
            "atomIds": [
              6,
              4
            ],
            "bo": "SINGLE"
          }
        ]
      },
      "vertexId": 95,
      "buildingBlockId": 16,
      "buildingBlockType": "FRAGMENT",
      "isRCV": false,
      "properties": {
        "ATTACHMENT_POINTS": "1#LImidazolidinylideneSubNL:0:SINGLE:7.7897%6.0821%4.7152 2#LImidazolidinylideneSubNL:0:SINGLE:9.2442%7.4469%0.1412 3#MImidazolidinylidene:1:SINGLE:7.3678%8.8196%2.9474 4#LImidazolidinylideneSubCS:0:SINGLE:8.0114%3.5478%2.7860,LImidazolidinylideneSubCS:0:SINGLE:10.1821%4.5337%3.5842 "
      },
      "uniquefyingPropertyKeys": [],
      "allowedMutationTypes": [
        "DELETE",
        "EXTEND",
        "CHANGEBRANCH",
        "CHANGELINK",
        "ADDLINK",
        "DELETELINK",
        "DELETECHAIN"
      ],
      "vertexType": "MolecularFragment"
    },
    {
      "lstAPs": [
        {
          "id": 19759,
          "atomPositionNumber": 0,
          "atomPositionNumberInMol": 53,
          "apClass": {
            "rule": "Xlig",
            "subClass": 1,
            "bndTyp": "SINGLE"
          },
          "dirVec": {
            "x": -0.0053,
            "y": -0.0027,
            "z": 0.63
          }
        }
      ],
      "lstSymAPs": [],
      "mol": {
        "atoms": [
          {
            "elSymbol": "Cl",
            "p3d": {
              "x": 2.3243,
              "y": -0.0063,
              "z": 0.8189
            }
          }
        ],
        "bonds": []
      },
      "vertexId": 88,
      "buildingBlockId": 66,
      "buildingBlockType": "FRAGMENT",
      "isRCV": false,
      "properties": {
        "ATTACHMENT_POINTS": "1#Xlig:1:SINGLE:-0.0053%-0.0027%0.6300 "
      },
      "uniquefyingPropertyKeys": [],
      "allowedMutationTypes": [
        "DELETE",
        "EXTEND",
        "CHANGEBRANCH",
        "CHANGELINK",
        "ADDLINK",
        "DELETELINK",
        "DELETECHAIN"
      ],
      "vertexType": "MolecularFragment"
    },
    {
      "lstAPs": [
        {
          "id": 19806,
          "atomPositionNumber": 1,
          "atomPositionNumberInMol": 18,
          "apClass": {
            "rule": "SubRS",
            "subClass": 1,
            "bndTyp": "SINGLE"
          },
          "dirVec": {
            "x": 0.2985,
            "y": 0.384,
            "z": -0.6258
          }
        }
      ],
      "lstSymAPs": [],
      "mol": {
        "atoms": [
          {
            "elSymbol": "C",
            "p3d": {
              "x": -1.0244,
              "y": -0.2225,
              "z": 1.3991
            }
          },
          {
            "elSymbol": "C",
            "p3d": {
              "x": 0.3973,
              "y": -0.042,
              "z": 0.8195
            }
          },
          {
            "elSymbol": "H",
            "p3d": {
              "x": -1.5635,
              "y": -0.9908,
              "z": 0.8263
            }
          },
          {
            "elSymbol": "H",
            "p3d": {
              "x": -0.941,
              "y": -0.535,
              "z": 2.446
            }
          },
          {
            "elSymbol": "H",
            "p3d": {
              "x": -1.5586,
              "y": 0.7335,
              "z": 1.3382
            }
          },
          {
            "elSymbol": "H",
            "p3d": {
              "x": 0.9335,
              "y": 0.7221,
              "z": 1.4011
            }
          },
          {
            "elSymbol": "H",
            "p3d": {
              "x": 0.927,
              "y": -1.0102,
              "z": 0.9001
            }
          }
        ],
        "bonds": [
          {
            "atomIds": [
              0,
              1
            ],
            "bo": "SINGLE"
          },
          {
            "atomIds": [
              0,
              2
            ],
            "bo": "SINGLE"
          },
          {
            "atomIds": [
              0,
              3
            ],
            "bo": "SINGLE"
          },
          {
            "atomIds": [
              0,
              4
            ],
            "bo": "SINGLE"
          },
          {
            "atomIds": [
              1,
              5
            ],
            "bo": "SINGLE"
          },
          {
            "atomIds": [
              1,
              6
            ],
            "bo": "SINGLE"
          }
        ]
      },
      "vertexId": 13931,
      "buildingBlockId": 31,
      "buildingBlockType": "FRAGMENT",
      "isRCV": false,
      "properties": {
        "ATTACHMENT_POINTS": "2#SubRS:1:SINGLE:0.2985%0.3840%-0.6258 "
      },
      "uniquefyingPropertyKeys": [],
      "allowedMutationTypes": [
        "DELETE",
        "EXTEND",
        "CHANGEBRANCH",
        "CHANGELINK",
        "ADDLINK",
        "DELETELINK",
        "DELETECHAIN"
      ],
      "vertexType": "MolecularFragment"
    },
    {
      "lstAPs": [
        {
          "id": 19807,
          "atomPositionNumber": 0,
          "atomPositionNumberInMol": 24,
          "apClass": {
            "rule": "SubArS",
            "subClass": 1,
            "bndTyp": "SINGLE"
          },
          "dirVec": {
            "x": 0.2973,
            "y": 0.3873,
            "z": -0.6389
          }
        }
      ],
      "lstSymAPs": [],
      "mol": {
        "atoms": [
          {
            "elSymbol": "C",
            "p3d": {
              "x": 1.6995,
              "y": 0.5593,
              "z": -1.2083
            }
          },
          {
            "elSymbol": "C",
            "p3d": {
              "x": 4.2563,
              "y": 0.8754,
              "z": -2.2592
            }
          },
          {
            "elSymbol": "C",
            "p3d": {
              "x": 2.3334,
              "y": 1.79,
              "z": -1.1338
            }
          },
          {
            "elSymbol": "C",
            "p3d": {
              "x": 2.3422,
              "y": -0.5107,
              "z": -1.8125
            }
          },
          {
            "elSymbol": "C",
            "p3d": {
              "x": 3.612,
              "y": -0.3527,
              "z": -2.3321
            }
          },
          {
            "elSymbol": "C",
            "p3d": {
              "x": 3.6062,
              "y": 1.9513,
              "z": -1.6526
            }
          },
          {
            "elSymbol": "H",
            "p3d": {
              "x": 1.833,
              "y": 2.6461,
              "z": -0.6488
            }
          },
          {
            "elSymbol": "H",
            "p3d": {
              "x": 1.8361,
              "y": -1.4773,
              "z": -1.887
            }
          },
          {
            "elSymbol": "H",
            "p3d": {
              "x": 4.115,
              "y": -1.2043,
              "z": -2.8152
            }
          },
          {
            "elSymbol": "H",
            "p3d": {
              "x": 4.1097,
              "y": 2.9214,
              "z": -1.5842
            }
          },
          {
            "elSymbol": "H",
            "p3d": {
              "x": 5.2498,
              "y": 0.9926,
              "z": -2.665
            }
          }
        ],
        "bonds": [
          {
            "atomIds": [
              0,
              3
            ],
            "bo": "SINGLE"
          },
          {
            "atomIds": [
              3,
              4
            ],
            "bo": "DOUBLE"
          },
          {
            "atomIds": [
              1,
              4
            ],
            "bo": "SINGLE"
          },
          {
            "atomIds": [
              1,
              5
            ],
            "bo": "DOUBLE"
          },
          {
            "atomIds": [
              2,
              5
            ],
            "bo": "SINGLE"
          },
          {
            "atomIds": [
              0,
              2
            ],
            "bo": "DOUBLE"
          },
          {
            "atomIds": [
              4,
              8
            ],
            "bo": "SINGLE"
          },
          {
            "atomIds": [
              5,
              9
            ],
            "bo": "SINGLE"
          },
          {
            "atomIds": [
              1,
              10
            ],
            "bo": "SINGLE"
          },
          {
            "atomIds": [
              2,
              6
            ],
            "bo": "SINGLE"
          },
          {
            "atomIds": [
              3,
              7
            ],
            "bo": "SINGLE"
          }
        ]
      },
      "vertexId": 13932,
      "buildingBlockId": 35,
      "buildingBlockType": "FRAGMENT",
      "isRCV": false,
      "properties": {
        "ATTACHMENT_POINTS": "1#SubArS:1:SINGLE:0.2973%0.3873%-0.6389 "
      },
      "uniquefyingPropertyKeys": [],
      "allowedMutationTypes": [
        "DELETE",
        "EXTEND",
        "CHANGEBRANCH",
        "CHANGELINK",
        "ADDLINK",
        "DELETELINK",
        "DELETECHAIN"
      ],
      "vertexType": "MolecularFragment"
    },
    {
      "lstAPs": [
        {
          "id": 19808,
          "atomPositionNumber": 1,
          "atomPositionNumberInMol": 36,
          "apClass": {
            "rule": "SubRS",
            "subClass": 1,
            "bndTyp": "SINGLE"
          },
          "dirVec": {
            "x": 0.2985,
            "y": 0.384,
            "z": -0.6258
          }
        }
      ],
      "lstSymAPs": [],
      "mol": {
        "atoms": [
          {
            "elSymbol": "C",
            "p3d": {
              "x": -1.0244,
              "y": -0.2225,
              "z": 1.3991
            }
          },
          {
            "elSymbol": "C",
            "p3d": {
              "x": 0.3973,
              "y": -0.042,
              "z": 0.8195
            }
          },
          {
            "elSymbol": "H",
            "p3d": {
              "x": -1.5635,
              "y": -0.9908,
              "z": 0.8263
            }
          },
          {
            "elSymbol": "H",
            "p3d": {
              "x": -0.941,
              "y": -0.535,
              "z": 2.446
            }
          },
          {
            "elSymbol": "H",
            "p3d": {
              "x": -1.5586,
              "y": 0.7335,
              "z": 1.3382
            }
          },
          {
            "elSymbol": "H",
            "p3d": {
              "x": 0.9335,
              "y": 0.7221,
              "z": 1.4011
            }
          },
          {
            "elSymbol": "H",
            "p3d": {
              "x": 0.927,
              "y": -1.0102,
              "z": 0.9001
            }
          }
        ],
        "bonds": [
          {
            "atomIds": [
              0,
              1
            ],
            "bo": "SINGLE"
          },
          {
            "atomIds": [
              0,
              2
            ],
            "bo": "SINGLE"
          },
          {
            "atomIds": [
              0,
              3
            ],
            "bo": "SINGLE"
          },
          {
            "atomIds": [
              0,
              4
            ],
            "bo": "SINGLE"
          },
          {
            "atomIds": [
              1,
              5
            ],
            "bo": "SINGLE"
          },
          {
            "atomIds": [
              1,
              6
            ],
            "bo": "SINGLE"
          }
        ]
      },
      "vertexId": 13593,
      "buildingBlockId": 31,
      "buildingBlockType": "FRAGMENT",
      "isRCV": false,
      "properties": {
        "ATTACHMENT_POINTS": "2#SubRS:1:SINGLE:0.2985%0.3840%-0.6258 "
      },
      "uniquefyingPropertyKeys": [],
      "allowedMutationTypes": [
        "DELETE",
        "EXTEND",
        "CHANGEBRANCH",
        "CHANGELINK",
        "ADDLINK",
        "DELETELINK",
        "DELETECHAIN"
      ],
      "vertexType": "MolecularFragment"
    },
    {
      "lstAPs": [
        {
          "id": 19809,
          "atomPositionNumber": 0,
          "atomPositionNumberInMol": 42,
          "apClass": {
            "rule": "SubArS",
            "subClass": 1,
            "bndTyp": "SINGLE"
          },
          "dirVec": {
            "x": 0.2973,
            "y": 0.3873,
            "z": -0.6389
          }
        }
      ],
      "lstSymAPs": [],
      "mol": {
        "atoms": [
          {
            "elSymbol": "C",
            "p3d": {
              "x": 1.6995,
              "y": 0.5593,
              "z": -1.2083
            }
          },
          {
            "elSymbol": "C",
            "p3d": {
              "x": 4.2563,
              "y": 0.8754,
              "z": -2.2592
            }
          },
          {
            "elSymbol": "C",
            "p3d": {
              "x": 2.3334,
              "y": 1.79,
              "z": -1.1338
            }
          },
          {
            "elSymbol": "C",
            "p3d": {
              "x": 2.3422,
              "y": -0.5107,
              "z": -1.8125
            }
          },
          {
            "elSymbol": "C",
            "p3d": {
              "x": 3.612,
              "y": -0.3527,
              "z": -2.3321
            }
          },
          {
            "elSymbol": "C",
            "p3d": {
              "x": 3.6062,
              "y": 1.9513,
              "z": -1.6526
            }
          },
          {
            "elSymbol": "H",
            "p3d": {
              "x": 1.833,
              "y": 2.6461,
              "z": -0.6488
            }
          },
          {
            "elSymbol": "H",
            "p3d": {
              "x": 1.8361,
              "y": -1.4773,
              "z": -1.887
            }
          },
          {
            "elSymbol": "H",
            "p3d": {
              "x": 4.115,
              "y": -1.2043,
              "z": -2.8152
            }
          },
          {
            "elSymbol": "H",
            "p3d": {
              "x": 4.1097,
              "y": 2.9214,
              "z": -1.5842
            }
          },
          {
            "elSymbol": "H",
            "p3d": {
              "x": 5.2498,
              "y": 0.9926,
              "z": -2.665
            }
          }
        ],
        "bonds": [
          {
            "atomIds": [
              0,
              3
            ],
            "bo": "SINGLE"
          },
          {
            "atomIds": [
              3,
              4
            ],
            "bo": "DOUBLE"
          },
          {
            "atomIds": [
              1,
              4
            ],
            "bo": "SINGLE"
          },
          {
            "atomIds": [
              1,
              5
            ],
            "bo": "DOUBLE"
          },
          {
            "atomIds": [
              2,
              5
            ],
            "bo": "SINGLE"
          },
          {
            "atomIds": [
              0,
              2
            ],
            "bo": "DOUBLE"
          },
          {
            "atomIds": [
              4,
              8
            ],
            "bo": "SINGLE"
          },
          {
            "atomIds": [
              5,
              9
            ],
            "bo": "SINGLE"
          },
          {
            "atomIds": [
              1,
              10
            ],
            "bo": "SINGLE"
          },
          {
            "atomIds": [
              2,
              6
            ],
            "bo": "SINGLE"
          },
          {
            "atomIds": [
              3,
              7
            ],
            "bo": "SINGLE"
          }
        ]
      },
      "vertexId": 13585,
      "buildingBlockId": 35,
      "buildingBlockType": "FRAGMENT",
      "isRCV": false,
      "properties": {
        "ATTACHMENT_POINTS": "1#SubArS:1:SINGLE:0.2973%0.3873%-0.6389 "
      },
      "uniquefyingPropertyKeys": [],
      "allowedMutationTypes": [
        "DELETE",
        "EXTEND",
        "CHANGEBRANCH",
        "CHANGELINK",
        "ADDLINK",
        "DELETELINK",
        "DELETECHAIN"
      ],
      "vertexType": "MolecularFragment"
    }
  ],
  "gEdges": [
    {
      "srcAPID": 19750,
      "trgAPID": 19753,
      "bondType": "SINGLE"
    },
    {
      "srcAPID": 19752,
      "trgAPID": 19756,
      "bondType": "SINGLE"
    },
    {
      "srcAPID": 19751,
      "trgAPID": 19759,
      "bondType": "SINGLE"
    },
    {
      "srcAPID": 19758,
      "trgAPID": 19806,
      "bondType": "SINGLE"
    },
    {
      "srcAPID": 19755,
      "trgAPID": 19807,
      "bondType": "SINGLE"
    },
    {
      "srcAPID": 19757,
      "trgAPID": 19808,
      "bondType": "SINGLE"
    },
    {
      "srcAPID": 19754,
      "trgAPID": 19809,
      "bondType": "SINGLE"
    }
  ],
  "gRings": [],
  "symVertices": [
    {
      "symIds": [
        13932,
        13585
      ]
    },
    {
      "symIds": [
        13931,
        13593
      ]
    }
  ]
}

> <SMILES>
[Pt](C#O)(SC([H])([H])[H])([C]1N(C(C(N1C=2C(=C(C(=C(C2[H])[H])[H])[H])[H])([H])[H])(C(C([H])([H])[H])([H])[H])C(C([H])([H])[H])([H])[H])C=3C(=C(C(=C(C3[H])[H])[H])[H])[H])Cl

$$$$
