M00006672
  CDK     04222211073D

 38 39  0  0  0  0  0  0  0  0999 V2000
   -2.0697   -0.2609   -0.8663 Pt  0  0  0  0  0  0  0  0  0  0  0  0
   -4.0232   -0.5178   -0.8141 C   0  0  0  0  0  0  0  0  0  0  0  0
   -5.1464   -0.7145   -0.7909 O   0  0  0  0  0  0  0  0  0  0  0  0
   -2.0333    1.7207   -0.5986 C   0  0  0  0  0  0  0  0  0  0  0  0
   -1.9991    2.8680   -0.4580 N   0  0  0  0  0  0  0  0  0  0  0  0
    1.9794    0.8781   -2.6073 C   0  0  0  0  0  0  0  0  0  0  0  0
    2.9025    1.4225   -2.3019 H   0  0  0  0  0  0  0  0  0  0  0  0
    1.7798    1.1489   -3.6704 H   0  0  0  0  0  0  0  0  0  0  0  0
    2.1926   -0.6590   -2.4719 C   0  0  0  0  0  0  0  0  0  0  0  0
    2.2366   -1.1315   -3.4795 H   0  0  0  0  0  0  0  0  0  0  0  0
    3.1678   -0.8709   -1.9741 H   0  0  0  0  0  0  0  0  0  0  0  0
    0.8360    1.3034   -1.7642 N   0  0  0  0  0  0  0  0  0  0  0  0
    1.0792   -1.2452   -1.6905 N   0  0  0  0  0  0  0  0  0  0  0  0
    0.1683   -0.0204   -0.8728 P   0  0  0  0  0  0  0  0  0  0  0  0
    0.7085    0.0406    0.9470 C   0  0  0  0  0  0  0  0  0  0  0  0
    1.4143    1.4879    2.8763 C   0  0  0  0  0  0  0  0  0  0  0  0
   -0.1056   -0.5029    3.2653 C   0  0  0  0  0  0  0  0  0  0  0  0
    0.2740    0.9109    3.7263 C   0  0  0  0  0  0  0  0  0  0  0  0
   -0.4602   -0.5262    1.7677 C   0  0  0  0  0  0  0  0  0  0  0  0
    1.0580    1.4682    1.3791 C   0  0  0  0  0  0  0  0  0  0  0  0
    2.3426    0.9122    3.0516 H   0  0  0  0  0  0  0  0  0  0  0  0
    0.7294   -1.2011    3.4650 H   0  0  0  0  0  0  0  0  0  0  0  0
   -0.6108    1.5748    3.6630 H   0  0  0  0  0  0  0  0  0  0  0  0
   -1.3929    0.0702    1.6148 H   0  0  0  0  0  0  0  0  0  0  0  0
    0.2077    2.1646    1.2102 H   0  0  0  0  0  0  0  0  0  0  0  0
    1.6079   -0.6106    1.0779 H   0  0  0  0  0  0  0  0  0  0  0  0
    1.6311    2.5258    3.1927 H   0  0  0  0  0  0  0  0  0  0  0  0
   -0.9633   -0.8751    3.8569 H   0  0  0  0  0  0  0  0  0  0  0  0
    0.5680    0.8946    4.7922 H   0  0  0  0  0  0  0  0  0  0  0  0
   -0.7029   -1.5704    1.4718 H   0  0  0  0  0  0  0  0  0  0  0  0
    1.9110    1.8696    0.7975 H   0  0  0  0  0  0  0  0  0  0  0  0
    0.5252    2.2735   -1.7641 H   0  0  0  0  0  0  0  0  0  0  0  0
    0.9099   -2.2478   -1.6906 H   0  0  0  0  0  0  0  0  0  0  0  0
   -2.2595   -2.5658   -1.1913 S   0  0  0  0  0  0  0  0  0  0  0  0
   -2.1333   -2.5072   -3.0029 C   0  0  0  0  0  0  0  0  0  0  0  0
   -1.1817   -2.9378   -3.3295 H   0  0  0  0  0  0  0  0  0  0  0  0
   -2.1999   -1.4767   -3.3725 H   0  0  0  0  0  0  0  0  0  0  0  0
   -2.9485   -3.0929   -3.4439 H   0  0  0  0  0  0  0  0  0  0  0  0
  2  3  3  0  0  0  0
  1  2  1  0  0  0  0
  4  5  3  0  0  0  0
  1  4  1  0  0  0  0
  6  7  1  0  0  0  0
  6 12  1  0  0  0  0
  8  6  1  0  0  0  0
  9  6  1  0  0  0  0
 10  9  1  0  0  0  0
 11  9  1  0  0  0  0
 12 14  1  0  0  0  0
 13  9  1  0  0  0  0
 13 14  1  0  0  0  0
  1 14  1  0  0  0  0
 15 26  1  0  0  0  0
 15 19  1  0  0  0  0
 15 20  1  0  0  0  0
 16 21  1  0  0  0  0
 16 27  1  0  0  0  0
 16 18  1  0  0  0  0
 16 20  1  0  0  0  0
 17 22  1  0  0  0  0
 17 28  1  0  0  0  0
 17 19  1  0  0  0  0
 17 18  1  0  0  0  0
 18 23  1  0  0  0  0
 18 29  1  0  0  0  0
 19 24  1  0  0  0  0
 19 30  1  0  0  0  0
 20 25  1  0  0  0  0
 20 31  1  0  0  0  0
 14 15  1  0  0  0  0
 12 32  1  0  0  0  0
 13 33  1  0  0  0  0
 35 36  1  0  0  0  0
 35 37  1  0  0  0  0
 35 38  1  0  0  0  0
 34 35  1  0  0  0  0
  1 34  1  0  0  0  0
M  END
> <PM6_ENERGY>
-97.302

> <UID>
BJGBRMQVNKLYQQ-WSMYXSNTNA-M

> <FITNESS>
1.14053

> <GCODE>
7502

> <GraphENC>
7502 72_1_0,81_66_1,99_2_1,85_64_1,150727_35_1,150721_1_2,151534_1_2, 72_0_81_0_SINGLE_Xlig:0_Xlig:1,72_2_99_3_SINGLE_scaff:0_MBisAminoPhosphine:1,72_1_85_0_SINGLE_Xlig:0_Xlig:1,99_2_150727_0_SINGLE_LBisAminoPhosphineSubR:0_SubRM:1,99_0_150721_0_SINGLE_LCycloBisAminoPhosphineSubN:0_hyd:1,99_1_151534_0_SINGLE_LCycloBisAminoPhosphineSubN:0_hyd:1, SymmetricSet [symIds=[150721, 151534]] 

> <GraphJson>
{
  "graphId": 7502,
  "gVertices": [
    {
      "lstAPs": [
        {
          "id": 198167,
          "atomPositionNumber": 0,
          "atomPositionNumberInMol": 0,
          "apClass": {
            "rule": "Xlig",
            "subClass": 0,
            "bndTyp": "SINGLE"
          },
          "dirVec": {
            "x": -2.3339,
            "y": -0.0087,
            "z": 0.8172
          }
        },
        {
          "id": 198168,
          "atomPositionNumber": 0,
          "atomPositionNumberInMol": 0,
          "apClass": {
            "rule": "Xlig",
            "subClass": 0,
            "bndTyp": "SINGLE"
          },
          "dirVec": {
            "x": 2.336,
            "y": -5.0E-4,
            "z": 0.829
          }
        },
        {
          "id": 198169,
          "atomPositionNumber": 0,
          "atomPositionNumberInMol": 0,
          "apClass": {
            "rule": "scaff",
            "subClass": 0,
            "bndTyp": "SINGLE"
          },
          "dirVec": {
            "x": -0.0095,
            "y": 0.0046,
            "z": -1.7113
          }
        }
      ],
      "lstSymAPs": [
        {
          "symIds": [
            0,
            1
          ]
        }
      ],
      "mol": {
        "atoms": [
          {
            "elSymbol": "Pt",
            "p3d": {
              "x": -0.0098,
              "y": 0.0049,
              "z": 0.6289
            }
          },
          {
            "elSymbol": "C",
            "p3d": {
              "x": -6.0E-4,
              "y": 0.0016,
              "z": 2.5609
            }
          },
          {
            "elSymbol": "O",
            "p3d": {
              "x": 0.0025,
              "y": -0.0041,
              "z": 3.6974
            }
          },
          {
            "elSymbol": "Du",
            "p3d": {
              "x": -0.007,
              "y": 1.0013,
              "z": 0.6372
            }
          },
          {
            "elSymbol": "Du",
            "p3d": {
              "x": -0.0014,
              "y": 0.9902,
              "z": 2.5698
            }
          }
        ],
        "bonds": [
          {
            "atomIds": [
              1,
              2
            ],
            "bo": "TRIPLE"
          },
          {
            "atomIds": [
              0,
              1
            ],
            "bo": "SINGLE"
          },
          {
            "atomIds": [
              3,
              0
            ],
            "bo": "SINGLE"
          },
          {
            "atomIds": [
              4,
              1
            ],
            "bo": "SINGLE"
          }
        ]
      },
      "vertexId": 72,
      "buildingBlockId": 0,
      "buildingBlockType": "SCAFFOLD",
      "isRCV": false,
      "properties": {
        "ATTACHMENT_POINTS": "1#Xlig:0:SINGLE:-2.3339%-0.0087%0.8172,Xlig:0:SINGLE:2.3360%-0.0005%0.8290,scaff:0:SINGLE:-0.0095%0.0046%-1.7113 "
      },
      "uniquefyingPropertyKeys": [],
      "allowedMutationTypes": [
        "DELETE",
        "EXTEND",
        "CHANGEBRANCH",
        "CHANGELINK",
        "ADDLINK",
        "DELETELINK",
        "DELETECHAIN"
      ],
      "vertexType": "MolecularFragment"
    },
    {
      "lstAPs": [
        {
          "id": 198170,
          "atomPositionNumber": 0,
          "atomPositionNumberInMol": 5,
          "apClass": {
            "rule": "Xlig",
            "subClass": 1,
            "bndTyp": "SINGLE"
          },
          "dirVec": {
            "x": 0.0192,
            "y": -0.0048,
            "z": -0.5645
          }
        }
      ],
      "lstSymAPs": [],
      "mol": {
        "atoms": [
          {
            "elSymbol": "C",
            "p3d": {
              "x": -1.967,
              "y": -0.0075,
              "z": -0.4937
            }
          },
          {
            "elSymbol": "N",
            "p3d": {
              "x": -3.1263,
              "y": -0.0054,
              "z": -0.4354
            }
          },
          {
            "elSymbol": "Du",
            "p3d": {
              "x": -1.9744,
              "y": 0.9926,
              "z": -0.5036
            }
          }
        ],
        "bonds": [
          {
            "atomIds": [
              0,
              1
            ],
            "bo": "TRIPLE"
          },
          {
            "atomIds": [
              2,
              0
            ],
            "bo": "SINGLE"
          }
        ]
      },
      "vertexId": 81,
      "buildingBlockId": 65,
      "buildingBlockType": "FRAGMENT",
      "isRCV": false,
      "properties": {
        "ATTACHMENT_POINTS": "1#Xlig:1:SINGLE:0.0192%-0.0048%-0.5645 "
      },
      "uniquefyingPropertyKeys": [],
      "allowedMutationTypes": [
        "DELETE",
        "EXTEND",
        "CHANGEBRANCH",
        "CHANGELINK",
        "ADDLINK",
        "DELETELINK",
        "DELETECHAIN"
      ],
      "vertexType": "MolecularFragment"
    },
    {
      "lstAPs": [
        {
          "id": 198171,
          "atomPositionNumber": 6,
          "atomPositionNumberInMol": 14,
          "apClass": {
            "rule": "LCycloBisAminoPhosphineSubN",
            "subClass": 0,
            "bndTyp": "SINGLE"
          },
          "dirVec": {
            "x": 5.444,
            "y": 15.1509,
            "z": 1.4318
          }
        },
        {
          "id": 198172,
          "atomPositionNumber": 7,
          "atomPositionNumberInMol": 15,
          "apClass": {
            "rule": "LCycloBisAminoPhosphineSubN",
            "subClass": 0,
            "bndTyp": "SINGLE"
          },
          "dirVec": {
            "x": 6.0759,
            "y": 19.8798,
            "z": 3.3975
          }
        },
        {
          "id": 198173,
          "atomPositionNumber": 8,
          "atomPositionNumberInMol": 16,
          "apClass": {
            "rule": "LBisAminoPhosphineSubR",
            "subClass": 0,
            "bndTyp": "SINGLE"
          },
          "dirVec": {
            "x": 8.322,
            "y": 17.0114,
            "z": 3.3102
          }
        },
        {
          "id": 198174,
          "atomPositionNumber": 8,
          "atomPositionNumberInMol": 16,
          "apClass": {
            "rule": "MBisAminoPhosphine",
            "subClass": 1,
            "bndTyp": "SINGLE"
          },
          "dirVec": {
            "x": 7.5392,
            "y": 18.0219,
            "z": 0.2376
          }
        }
      ],
      "lstSymAPs": [
        {
          "symIds": [
            0,
            1
          ]
        }
      ],
      "mol": {
        "atoms": [
          {
            "elSymbol": "C",
            "p3d": {
              "x": 4.9306,
              "y": 16.3362,
              "z": 3.6097
            }
          },
          {
            "elSymbol": "H",
            "p3d": {
              "x": 5.41,
              "y": 15.9229,
              "z": 4.4964
            }
          },
          {
            "elSymbol": "H",
            "p3d": {
              "x": 3.9543,
              "y": 15.8675,
              "z": 3.4723
            }
          },
          {
            "elSymbol": "C",
            "p3d": {
              "x": 4.7677,
              "y": 17.836,
              "z": 3.7637
            }
          },
          {
            "elSymbol": "H",
            "p3d": {
              "x": 3.8551,
              "y": 18.1933,
              "z": 3.2482
            }
          },
          {
            "elSymbol": "H",
            "p3d": {
              "x": 4.6641,
              "y": 18.1095,
              "z": 4.8111
            }
          },
          {
            "elSymbol": "N",
            "p3d": {
              "x": 5.7767,
              "y": 16.1652,
              "z": 2.3965
            }
          },
          {
            "elSymbol": "N",
            "p3d": {
              "x": 5.9524,
              "y": 18.471,
              "z": 3.179
            }
          },
          {
            "elSymbol": "P",
            "p3d": {
              "x": 6.8638,
              "y": 17.4143,
              "z": 2.2309
            }
          }
        ],
        "bonds": [
          {
            "atomIds": [
              0,
              1
            ],
            "bo": "SINGLE"
          },
          {
            "atomIds": [
              0,
              6
            ],
            "bo": "SINGLE"
          },
          {
            "atomIds": [
              2,
              0
            ],
            "bo": "SINGLE"
          },
          {
            "atomIds": [
              3,
              0
            ],
            "bo": "SINGLE"
          },
          {
            "atomIds": [
              4,
              3
            ],
            "bo": "SINGLE"
          },
          {
            "atomIds": [
              5,
              3
            ],
            "bo": "SINGLE"
          },
          {
            "atomIds": [
              6,
              8
            ],
            "bo": "SINGLE"
          },
          {
            "atomIds": [
              7,
              3
            ],
            "bo": "SINGLE"
          },
          {
            "atomIds": [
              7,
              8
            ],
            "bo": "SINGLE"
          }
        ]
      },
      "vertexId": 99,
      "buildingBlockId": 1,
      "buildingBlockType": "FRAGMENT",
      "isRCV": false,
      "properties": {
        "ATTACHMENT_POINTS": "7#LCycloBisAminoPhosphineSubN:0:SINGLE:5.4440%15.1509%1.4318 8#LCycloBisAminoPhosphineSubN:0:SINGLE:6.0759%19.8798%3.3975 9#LBisAminoPhosphineSubR:0:SINGLE:8.3220%17.0114%3.3102,MBisAminoPhosphine:1:SINGLE:7.5392%18.0219%0.2376 "
      },
      "uniquefyingPropertyKeys": [],
      "allowedMutationTypes": [
        "DELETE",
        "EXTEND",
        "CHANGEBRANCH",
        "CHANGELINK",
        "ADDLINK",
        "DELETELINK",
        "DELETECHAIN"
      ],
      "vertexType": "MolecularFragment"
    },
    {
      "lstAPs": [
        {
          "id": 198175,
          "atomPositionNumber": 0,
          "atomPositionNumberInMol": 36,
          "apClass": {
            "rule": "Xlig",
            "subClass": 1,
            "bndTyp": "SINGLE"
          },
          "dirVec": {
            "x": -0.102,
            "y": 0.0185,
            "z": -1.0265
          }
        }
      ],
      "lstSymAPs": [],
      "mol": {
        "atoms": [
          {
            "elSymbol": "S",
            "p3d": {
              "x": -0.3267,
              "y": 2.3403,
              "z": -1.0022
            }
          },
          {
            "elSymbol": "C",
            "p3d": {
              "x": -0.626,
              "y": 2.4866,
              "z": 0.7805
            }
          },
          {
            "elSymbol": "H",
            "p3d": {
              "x": 0.1766,
              "y": 3.089,
              "z": 1.2414
            }
          },
          {
            "elSymbol": "H",
            "p3d": {
              "x": -0.651,
              "y": 1.5065,
              "z": 1.2643
            }
          },
          {
            "elSymbol": "H",
            "p3d": {
              "x": -1.5658,
              "y": 2.981,
              "z": 0.9515
            }
          }
        ],
        "bonds": [
          {
            "atomIds": [
              1,
              2
            ],
            "bo": "SINGLE"
          },
          {
            "atomIds": [
              1,
              3
            ],
            "bo": "SINGLE"
          },
          {
            "atomIds": [
              1,
              4
            ],
            "bo": "SINGLE"
          },
          {
            "atomIds": [
              0,
              1
            ],
            "bo": "SINGLE"
          }
        ]
      },
      "vertexId": 85,
      "buildingBlockId": 63,
      "buildingBlockType": "FRAGMENT",
      "isRCV": false,
      "properties": {
        "ATTACHMENT_POINTS": "1#Xlig:1:SINGLE:-0.1020%0.0185%-1.0265 "
      },
      "uniquefyingPropertyKeys": [],
      "allowedMutationTypes": [
        "DELETE",
        "EXTEND",
        "CHANGEBRANCH",
        "CHANGELINK",
        "ADDLINK",
        "DELETELINK",
        "DELETECHAIN"
      ],
      "vertexType": "MolecularFragment"
    },
    {
      "lstAPs": [
        {
          "id": 198212,
          "atomPositionNumber": 0,
          "atomPositionNumberInMol": 17,
          "apClass": {
            "rule": "SubRM",
            "subClass": 1,
            "bndTyp": "SINGLE"
          },
          "dirVec": {
            "x": 0.2917,
            "y": 0.3929,
            "z": -0.6365
          }
        }
      ],
      "lstSymAPs": [],
      "mol": {
        "atoms": [
          {
            "elSymbol": "C",
            "p3d": {
              "x": 1.7002,
              "y": 0.56,
              "z": -1.2045
            }
          },
          {
            "elSymbol": "C",
            "p3d": {
              "x": 3.564,
              "y": -0.7339,
              "z": -2.2652
            }
          },
          {
            "elSymbol": "C",
            "p3d": {
              "x": 2.9237,
              "y": 1.5034,
              "z": -3.1926
            }
          },
          {
            "elSymbol": "C",
            "p3d": {
              "x": 3.4145,
              "y": 0.0994,
              "z": -3.5498
            }
          },
          {
            "elSymbol": "C",
            "p3d": {
              "x": 1.5576,
              "y": 1.3879,
              "z": -2.5024
            }
          },
          {
            "elSymbol": "C",
            "p3d": {
              "x": 2.203,
              "y": -0.843,
              "z": -1.5702
            }
          },
          {
            "elSymbol": "H",
            "p3d": {
              "x": 4.3384,
              "y": -0.3241,
              "z": -1.6106
            }
          },
          {
            "elSymbol": "H",
            "p3d": {
              "x": 3.6361,
              "y": 2.0524,
              "z": -2.5991
            }
          },
          {
            "elSymbol": "H",
            "p3d": {
              "x": 2.7828,
              "y": -0.3911,
              "z": -4.2916
            }
          },
          {
            "elSymbol": "H",
            "p3d": {
              "x": 0.7737,
              "y": 0.9833,
              "z": -3.15
            }
          },
          {
            "elSymbol": "H",
            "p3d": {
              "x": 1.4815,
              "y": -1.3988,
              "z": -2.1783
            }
          },
          {
            "elSymbol": "H",
            "p3d": {
              "x": 2.3445,
              "y": 1.0609,
              "z": -0.4835
            }
          },
          {
            "elSymbol": "H",
            "p3d": {
              "x": 3.8429,
              "y": -1.7623,
              "z": -2.577
            }
          },
          {
            "elSymbol": "H",
            "p3d": {
              "x": 2.7428,
              "y": 2.0124,
              "z": -4.146
            }
          },
          {
            "elSymbol": "H",
            "p3d": {
              "x": 4.4291,
              "y": 0.2183,
              "z": -3.9628
            }
          },
          {
            "elSymbol": "H",
            "p3d": {
              "x": 1.2819,
              "y": 2.4034,
              "z": -2.1821
            }
          },
          {
            "elSymbol": "H",
            "p3d": {
              "x": 2.3734,
              "y": -1.3662,
              "z": -0.6149
            }
          }
        ],
        "bonds": [
          {
            "atomIds": [
              0,
              11
            ],
            "bo": "SINGLE"
          },
          {
            "atomIds": [
              0,
              4
            ],
            "bo": "SINGLE"
          },
          {
            "atomIds": [
              0,
              5
            ],
            "bo": "SINGLE"
          },
          {
            "atomIds": [
              1,
              6
            ],
            "bo": "SINGLE"
          },
          {
            "atomIds": [
              1,
              12
            ],
            "bo": "SINGLE"
          },
          {
            "atomIds": [
              1,
              3
            ],
            "bo": "SINGLE"
          },
          {
            "atomIds": [
              1,
              5
            ],
            "bo": "SINGLE"
          },
          {
            "atomIds": [
              2,
              7
            ],
            "bo": "SINGLE"
          },
          {
            "atomIds": [
              2,
              13
            ],
            "bo": "SINGLE"
          },
          {
            "atomIds": [
              2,
              4
            ],
            "bo": "SINGLE"
          },
          {
            "atomIds": [
              2,
              3
            ],
            "bo": "SINGLE"
          },
          {
            "atomIds": [
              3,
              8
            ],
            "bo": "SINGLE"
          },
          {
            "atomIds": [
              3,
              14
            ],
            "bo": "SINGLE"
          },
          {
            "atomIds": [
              4,
              9
            ],
            "bo": "SINGLE"
          },
          {
            "atomIds": [
              4,
              15
            ],
            "bo": "SINGLE"
          },
          {
            "atomIds": [
              5,
              10
            ],
            "bo": "SINGLE"
          },
          {
            "atomIds": [
              5,
              16
            ],
            "bo": "SINGLE"
          }
        ]
      },
      "vertexId": 150727,
      "buildingBlockId": 34,
      "buildingBlockType": "FRAGMENT",
      "isRCV": false,
      "properties": {
        "ATTACHMENT_POINTS": "1#SubRM:1:SINGLE:0.2917%0.3929%-0.6365 "
      },
      "uniquefyingPropertyKeys": [],
      "allowedMutationTypes": [
        "DELETE",
        "EXTEND",
        "CHANGEBRANCH",
        "CHANGELINK",
        "ADDLINK",
        "DELETELINK",
        "DELETECHAIN"
      ],
      "vertexType": "MolecularFragment"
    },
    {
      "lstAPs": [
        {
          "id": 198213,
          "atomPositionNumber": 0,
          "atomPositionNumberInMol": 34,
          "apClass": {
            "rule": "hyd",
            "subClass": 1,
            "bndTyp": "SINGLE"
          },
          "dirVec": {
            "x": 0.4589,
            "y": -1.751,
            "z": 0.3869
          }
        }
      ],
      "lstSymAPs": [],
      "mol": {
        "atoms": [
          {
            "elSymbol": "H",
            "p3d": {
              "x": 0.1925,
              "y": -2.5024,
              "z": 1.1483
            }
          }
        ],
        "bonds": []
      },
      "vertexId": 150721,
      "buildingBlockId": 0,
      "buildingBlockType": "CAP",
      "isRCV": false,
      "properties": {
        "ATTACHMENT_POINTS": "1#hyd:1:SINGLE:0.4589%-1.7510%0.3869 "
      },
      "uniquefyingPropertyKeys": [],
      "allowedMutationTypes": [
        "DELETE",
        "EXTEND",
        "CHANGEBRANCH",
        "CHANGELINK",
        "ADDLINK",
        "DELETELINK",
        "DELETECHAIN"
      ],
      "vertexType": "MolecularFragment"
    },
    {
      "lstAPs": [
        {
          "id": 198214,
          "atomPositionNumber": 0,
          "atomPositionNumberInMol": 35,
          "apClass": {
            "rule": "hyd",
            "subClass": 1,
            "bndTyp": "SINGLE"
          },
          "dirVec": {
            "x": 0.4589,
            "y": -1.751,
            "z": 0.3869
          }
        }
      ],
      "lstSymAPs": [],
      "mol": {
        "atoms": [
          {
            "elSymbol": "H",
            "p3d": {
              "x": 0.1925,
              "y": -2.5024,
              "z": 1.1483
            }
          }
        ],
        "bonds": []
      },
      "vertexId": 151534,
      "buildingBlockId": 0,
      "buildingBlockType": "CAP",
      "isRCV": false,
      "properties": {
        "ATTACHMENT_POINTS": "1#hyd:1:SINGLE:0.4589%-1.7510%0.3869 "
      },
      "uniquefyingPropertyKeys": [],
      "allowedMutationTypes": [
        "DELETE",
        "EXTEND",
        "CHANGEBRANCH",
        "CHANGELINK",
        "ADDLINK",
        "DELETELINK",
        "DELETECHAIN"
      ],
      "vertexType": "MolecularFragment"
    }
  ],
  "gEdges": [
    {
      "srcAPID": 198167,
      "trgAPID": 198170,
      "bondType": "SINGLE"
    },
    {
      "srcAPID": 198169,
      "trgAPID": 198174,
      "bondType": "SINGLE"
    },
    {
      "srcAPID": 198168,
      "trgAPID": 198175,
      "bondType": "SINGLE"
    },
    {
      "srcAPID": 198173,
      "trgAPID": 198212,
      "bondType": "SINGLE"
    },
    {
      "srcAPID": 198171,
      "trgAPID": 198213,
      "bondType": "SINGLE"
    },
    {
      "srcAPID": 198172,
      "trgAPID": 198214,
      "bondType": "SINGLE"
    }
  ],
  "gRings": [],
  "symVertices": [
    {
      "symIds": [
        150721,
        151534
      ]
    }
  ]
}

> <SMILES>
[Pt](C#O)(C#N)([P]1(N(C([H])([H])C([H])([H])N1[H])[H])C2([H])C(C([H])([H])C(C([H])([H])C2([H])[H])([H])[H])([H])[H])SC([H])([H])[H]

$$$$
