M00002977
  CDK     04222209463D

 46 47  0  0  0  0  0  0  0  0999 V2000
   -2.1011   -0.1454    0.0232 Pt  0  0  0  0  0  0  0  0  0  0  0  0
   -4.0296   -0.1516   -0.1686 C   0  0  0  0  0  0  0  0  0  0  0  0
   -5.1691   -0.1312   -0.2927 O   0  0  0  0  0  0  0  0  0  0  0  0
   -1.5898    1.8353   -0.0286 O   0  0  0  0  0  0  0  0  0  0  0  0
   -2.6854    2.6995    0.1663 C   0  0  0  0  0  0  0  0  0  0  0  0
   -2.2724    3.7174    0.1624 H   0  0  0  0  0  0  0  0  0  0  0  0
   -3.1600    2.4869    1.1316 H   0  0  0  0  0  0  0  0  0  0  0  0
   -3.3986    2.5834   -0.6589 H   0  0  0  0  0  0  0  0  0  0  0  0
    0.1536    0.0327    0.2128 P   0  0  0  0  0  0  0  0  0  0  0  0
    0.8245    1.0641   -1.2109 C   0  0  0  0  0  0  0  0  0  0  0  0
    0.3911    2.1006   -1.1568 H   0  0  0  0  0  0  0  0  0  0  0  0
    2.3474    1.1306   -1.0996 C   0  0  0  0  0  0  0  0  0  0  0  0
    2.6336    1.7162   -0.1981 H   0  0  0  0  0  0  0  0  0  0  0  0
    2.7296    1.7281   -1.9566 H   0  0  0  0  0  0  0  0  0  0  0  0
    3.0914   -0.2145   -1.0970 C   0  0  0  0  0  0  0  0  0  0  0  0
    4.1642   -0.0243   -0.8956 H   0  0  0  0  0  0  0  0  0  0  0  0
    3.0497   -0.6422   -2.1264 H   0  0  0  0  0  0  0  0  0  0  0  0
    2.5893   -1.2794   -0.1082 C   0  0  0  0  0  0  0  0  0  0  0  0
    3.1259   -2.2279   -0.3340 H   0  0  0  0  0  0  0  0  0  0  0  0
    2.9145   -1.0117    0.9190 H   0  0  0  0  0  0  0  0  0  0  0  0
    1.0868   -1.5738   -0.1252 C   0  0  0  0  0  0  0  0  0  0  0  0
    0.8550   -2.3364    0.6577 H   0  0  0  0  0  0  0  0  0  0  0  0
    0.5049   -2.0525   -1.4625 C   0  0  0  0  0  0  0  0  0  0  0  0
   -0.5862   -2.2908   -1.3307 H   0  0  0  0  0  0  0  0  0  0  0  0
    0.9675   -3.0279   -1.7207 H   0  0  0  0  0  0  0  0  0  0  0  0
    0.6832   -1.1066   -2.6618 C   0  0  0  0  0  0  0  0  0  0  0  0
    1.7491   -1.1247   -2.9818 H   0  0  0  0  0  0  0  0  0  0  0  0
    0.1063   -1.5178   -3.5154 H   0  0  0  0  0  0  0  0  0  0  0  0
    0.2519    0.3550   -2.4474 C   0  0  0  0  0  0  0  0  0  0  0  0
    0.5421    0.9355   -3.3488 H   0  0  0  0  0  0  0  0  0  0  0  0
   -0.8656    0.4113   -2.4227 H   0  0  0  0  0  0  0  0  0  0  0  0
   -0.4760    0.2263    2.8710 C   0  0  0  0  0  0  0  0  0  0  0  0
    0.6377    0.6815    1.9313 C   0  0  0  0  0  0  0  0  0  0  0  0
    0.7742    2.1971    1.8905 C   0  0  0  0  0  0  0  0  0  0  0  0
    1.6344    2.5322    1.2959 H   0  0  0  0  0  0  0  0  0  0  0  0
    0.9085    2.6030    2.9019 H   0  0  0  0  0  0  0  0  0  0  0  0
   -0.1290    2.6864    1.4764 H   0  0  0  0  0  0  0  0  0  0  0  0
   -0.3202    0.6373    3.8794 H   0  0  0  0  0  0  0  0  0  0  0  0
   -1.4749    0.5802    2.5514 H   0  0  0  0  0  0  0  0  0  0  0  0
   -0.5263   -0.8645    2.9870 H   0  0  0  0  0  0  0  0  0  0  0  0
    1.6102    0.2272    2.2423 H   0  0  0  0  0  0  0  0  0  0  0  0
   -2.3360   -2.1777   -0.0266 O   0  0  0  0  0  0  0  0  0  0  0  0
   -2.3025   -2.7045    1.2799 C   0  0  0  0  0  0  0  0  0  0  0  0
   -2.8833   -3.6377    1.2433 H   0  0  0  0  0  0  0  0  0  0  0  0
   -2.7564   -2.0029    1.9916 H   0  0  0  0  0  0  0  0  0  0  0  0
   -1.2644   -2.9220    1.5608 H   0  0  0  0  0  0  0  0  0  0  0  0
  2  3  3  0  0  0  0
  1  2  1  0  0  0  0
  5  6  1  0  0  0  0
  5  7  1  0  0  0  0
  5  8  1  0  0  0  0
  4  5  1  0  0  0  0
  1  4  1  0  0  0  0
 10  9  1  0  0  0  0
 10 11  1  0  0  0  0
 12 10  1  0  0  0  0
 13 12  1  0  0  0  0
 14 12  1  0  0  0  0
 15 12  1  0  0  0  0
 16 15  1  0  0  0  0
 17 15  1  0  0  0  0
 18 15  1  0  0  0  0
 18 21  1  0  0  0  0
 19 18  1  0  0  0  0
 20 18  1  0  0  0  0
 21  9  1  0  0  0  0
 21 22  1  0  0  0  0
 23 21  1  0  0  0  0
 24 23  1  0  0  0  0
 25 23  1  0  0  0  0
 26 23  1  0  0  0  0
 26 29  1  0  0  0  0
 27 26  1  0  0  0  0
 28 26  1  0  0  0  0
 29 10  1  0  0  0  0
 30 29  1  0  0  0  0
 31 29  1  0  0  0  0
  1  9  1  0  0  0  0
 32 33  1  0  0  0  0
 33 34  1  0  0  0  0
 34 35  1  0  0  0  0
 34 36  1  0  0  0  0
 34 37  1  0  0  0  0
 32 38  1  0  0  0  0
 32 39  1  0  0  0  0
 32 40  1  0  0  0  0
 33 41  1  0  0  0  0
  9 33  1  0  0  0  0
 43 44  1  0  0  0  0
 43 45  1  0  0  0  0
 43 46  1  0  0  0  0
 42 43  1  0  0  0  0
  1 42  1  0  0  0  0
M  END
> <PM6_ENERGY>
-578.077

> <UID>
SNLIAAJHQSSLFA-AARRCCONNA-N

> <FITNESS>
1.14642

> <GCODE>
3670

> <GraphENC>
3670 72_1_0,80_65_1,102_40_1,86_65_1,70906_33_1, 72_0_80_0_SINGLE_Xlig:0_Xlig:1,72_2_102_1_SINGLE_scaff:0_MPhosphine:1,72_1_86_0_SINGLE_Xlig:0_Xlig:1,102_0_70906_0_SINGLE_LPhosphineSubM:0_SubRM:1, 

> <GraphJson>
{
  "graphId": 3670,
  "gVertices": [
    {
      "lstAPs": [
        {
          "id": 93863,
          "atomPositionNumber": 0,
          "atomPositionNumberInMol": 0,
          "apClass": {
            "rule": "Xlig",
            "subClass": 0,
            "bndTyp": "SINGLE"
          },
          "dirVec": {
            "x": -2.3339,
            "y": -0.0087,
            "z": 0.8172
          }
        },
        {
          "id": 93864,
          "atomPositionNumber": 0,
          "atomPositionNumberInMol": 0,
          "apClass": {
            "rule": "Xlig",
            "subClass": 0,
            "bndTyp": "SINGLE"
          },
          "dirVec": {
            "x": 2.336,
            "y": -5.0E-4,
            "z": 0.829
          }
        },
        {
          "id": 93865,
          "atomPositionNumber": 0,
          "atomPositionNumberInMol": 0,
          "apClass": {
            "rule": "scaff",
            "subClass": 0,
            "bndTyp": "SINGLE"
          },
          "dirVec": {
            "x": -0.0095,
            "y": 0.0046,
            "z": -1.7113
          }
        }
      ],
      "lstSymAPs": [
        {
          "symIds": [
            0,
            1
          ]
        }
      ],
      "mol": {
        "atoms": [
          {
            "elSymbol": "Pt",
            "p3d": {
              "x": -0.0098,
              "y": 0.0049,
              "z": 0.6289
            }
          },
          {
            "elSymbol": "C",
            "p3d": {
              "x": -6.0E-4,
              "y": 0.0016,
              "z": 2.5609
            }
          },
          {
            "elSymbol": "O",
            "p3d": {
              "x": 0.0025,
              "y": -0.0041,
              "z": 3.6974
            }
          },
          {
            "elSymbol": "Du",
            "p3d": {
              "x": -0.007,
              "y": 1.0013,
              "z": 0.6372
            }
          },
          {
            "elSymbol": "Du",
            "p3d": {
              "x": -0.0014,
              "y": 0.9902,
              "z": 2.5698
            }
          }
        ],
        "bonds": [
          {
            "atomIds": [
              1,
              2
            ],
            "bo": "TRIPLE"
          },
          {
            "atomIds": [
              0,
              1
            ],
            "bo": "SINGLE"
          },
          {
            "atomIds": [
              3,
              0
            ],
            "bo": "SINGLE"
          },
          {
            "atomIds": [
              4,
              1
            ],
            "bo": "SINGLE"
          }
        ]
      },
      "vertexId": 72,
      "buildingBlockId": 0,
      "buildingBlockType": "SCAFFOLD",
      "isRCV": false,
      "properties": {
        "ATTACHMENT_POINTS": "1#Xlig:0:SINGLE:-2.3339%-0.0087%0.8172,Xlig:0:SINGLE:2.3360%-0.0005%0.8290,scaff:0:SINGLE:-0.0095%0.0046%-1.7113 "
      },
      "uniquefyingPropertyKeys": [],
      "allowedMutationTypes": [
        "DELETE",
        "EXTEND",
        "CHANGEBRANCH",
        "CHANGELINK",
        "ADDLINK",
        "DELETELINK",
        "DELETECHAIN"
      ],
      "vertexType": "MolecularFragment"
    },
    {
      "lstAPs": [
        {
          "id": 93866,
          "atomPositionNumber": 0,
          "atomPositionNumberInMol": 5,
          "apClass": {
            "rule": "Xlig",
            "subClass": 1,
            "bndTyp": "SINGLE"
          },
          "dirVec": {
            "x": -0.1753,
            "y": 0.0948,
            "z": -0.4464
          }
        }
      ],
      "lstSymAPs": [],
      "mol": {
        "atoms": [
          {
            "elSymbol": "O",
            "p3d": {
              "x": -0.3534,
              "y": 2.1044,
              "z": -0.7339
            }
          },
          {
            "elSymbol": "C",
            "p3d": {
              "x": -0.5345,
              "y": 2.7646,
              "z": 0.4801
            }
          },
          {
            "elSymbol": "H",
            "p3d": {
              "x": -0.3728,
              "y": 3.8337,
              "z": 0.2724
            }
          },
          {
            "elSymbol": "H",
            "p3d": {
              "x": 0.1816,
              "y": 2.4161,
              "z": 1.2384
            }
          },
          {
            "elSymbol": "H",
            "p3d": {
              "x": -1.553,
              "y": 2.6149,
              "z": 0.8489
            }
          }
        ],
        "bonds": [
          {
            "atomIds": [
              1,
              2
            ],
            "bo": "SINGLE"
          },
          {
            "atomIds": [
              1,
              3
            ],
            "bo": "SINGLE"
          },
          {
            "atomIds": [
              1,
              4
            ],
            "bo": "SINGLE"
          },
          {
            "atomIds": [
              0,
              1
            ],
            "bo": "SINGLE"
          }
        ]
      },
      "vertexId": 80,
      "buildingBlockId": 64,
      "buildingBlockType": "FRAGMENT",
      "isRCV": false,
      "properties": {
        "ATTACHMENT_POINTS": "1#Xlig:1:SINGLE:-0.1753%0.0948%-0.4464 "
      },
      "uniquefyingPropertyKeys": [],
      "allowedMutationTypes": [
        "DELETE",
        "EXTEND",
        "CHANGEBRANCH",
        "CHANGELINK",
        "ADDLINK",
        "DELETELINK",
        "DELETECHAIN"
      ],
      "vertexType": "MolecularFragment"
    },
    {
      "lstAPs": [
        {
          "id": 93867,
          "atomPositionNumber": 0,
          "atomPositionNumberInMol": 10,
          "apClass": {
            "rule": "LPhosphineSubM",
            "subClass": 0,
            "bndTyp": "SINGLE"
          },
          "dirVec": {
            "x": 7.9272,
            "y": -2.5174,
            "z": 6.3831
          }
        },
        {
          "id": 93868,
          "atomPositionNumber": 0,
          "atomPositionNumberInMol": 10,
          "apClass": {
            "rule": "MPhosphine",
            "subClass": 1,
            "bndTyp": "SINGLE"
          },
          "dirVec": {
            "x": 5.3681,
            "y": -0.8345,
            "z": 7.9017
          }
        }
      ],
      "lstSymAPs": [],
      "mol": {
        "atoms": [
          {
            "elSymbol": "P",
            "p3d": {
              "x": 6.9938,
              "y": -2.3142,
              "z": 7.9569
            }
          },
          {
            "elSymbol": "C",
            "p3d": {
              "x": 6.4789,
              "y": -4.0179,
              "z": 8.4779
            }
          },
          {
            "elSymbol": "H",
            "p3d": {
              "x": 5.6991,
              "y": -4.3449,
              "z": 7.7903
            }
          },
          {
            "elSymbol": "C",
            "p3d": {
              "x": 7.6308,
              "y": -5.0175,
              "z": 8.3775
            }
          },
          {
            "elSymbol": "H",
            "p3d": {
              "x": 7.9355,
              "y": -5.0968,
              "z": 7.3495
            }
          },
          {
            "elSymbol": "H",
            "p3d": {
              "x": 7.2741,
              "y": -5.9875,
              "z": 8.7015
            }
          },
          {
            "elSymbol": "C",
            "p3d": {
              "x": 8.8837,
              "y": -4.6364,
              "z": 9.2304
            }
          },
          {
            "elSymbol": "H",
            "p3d": {
              "x": 9.6989,
              "y": -5.3031,
              "z": 8.9301
            }
          },
          {
            "elSymbol": "H",
            "p3d": {
              "x": 8.6577,
              "y": -4.8647,
              "z": 10.2633
            }
          },
          {
            "elSymbol": "C",
            "p3d": {
              "x": 9.3638,
              "y": -3.1969,
              "z": 9.1272
            }
          },
          {
            "elSymbol": "H",
            "p3d": {
              "x": 10.1041,
              "y": -3.0308,
              "z": 9.9217
            }
          },
          {
            "elSymbol": "H",
            "p3d": {
              "x": 9.884,
              "y": -3.0664,
              "z": 8.1855
            }
          },
          {
            "elSymbol": "C",
            "p3d": {
              "x": 8.2791,
              "y": -2.1163,
              "z": 9.2588
            }
          },
          {
            "elSymbol": "H",
            "p3d": {
              "x": 8.7569,
              "y": -1.1402,
              "z": 9.1018
            }
          },
          {
            "elSymbol": "C",
            "p3d": {
              "x": 7.5764,
              "y": -2.0735,
              "z": 10.6271
            }
          },
          {
            "elSymbol": "H",
            "p3d": {
              "x": 6.9371,
              "y": -1.1906,
              "z": 10.6604
            }
          },
          {
            "elSymbol": "H",
            "p3d": {
              "x": 8.3398,
              "y": -1.9598,
              "z": 11.4008
            }
          },
          {
            "elSymbol": "C",
            "p3d": {
              "x": 6.717,
              "y": -3.3005,
              "z": 10.9996
            }
          },
          {
            "elSymbol": "H",
            "p3d": {
              "x": 7.3706,
              "y": -4.0717,
              "z": 11.3581
            }
          },
          {
            "elSymbol": "H",
            "p3d": {
              "x": 6.058,
              "y": -3.0039,
              "z": 11.8074
            }
          },
          {
            "elSymbol": "C",
            "p3d": {
              "x": 5.8297,
              "y": -3.8969,
              "z": 9.8822
            }
          },
          {
            "elSymbol": "H",
            "p3d": {
              "x": 5.5463,
              "y": -4.9079,
              "z": 10.192
            }
          },
          {
            "elSymbol": "H",
            "p3d": {
              "x": 4.9376,
              "y": -3.3154,
              "z": 9.8051
            }
          }
        ],
        "bonds": [
          {
            "atomIds": [
              1,
              0
            ],
            "bo": "SINGLE"
          },
          {
            "atomIds": [
              1,
              2
            ],
            "bo": "SINGLE"
          },
          {
            "atomIds": [
              3,
              1
            ],
            "bo": "SINGLE"
          },
          {
            "atomIds": [
              4,
              3
            ],
            "bo": "SINGLE"
          },
          {
            "atomIds": [
              5,
              3
            ],
            "bo": "SINGLE"
          },
          {
            "atomIds": [
              6,
              3
            ],
            "bo": "SINGLE"
          },
          {
            "atomIds": [
              7,
              6
            ],
            "bo": "SINGLE"
          },
          {
            "atomIds": [
              8,
              6
            ],
            "bo": "SINGLE"
          },
          {
            "atomIds": [
              9,
              6
            ],
            "bo": "SINGLE"
          },
          {
            "atomIds": [
              9,
              12
            ],
            "bo": "SINGLE"
          },
          {
            "atomIds": [
              10,
              9
            ],
            "bo": "SINGLE"
          },
          {
            "atomIds": [
              11,
              9
            ],
            "bo": "SINGLE"
          },
          {
            "atomIds": [
              12,
              0
            ],
            "bo": "SINGLE"
          },
          {
            "atomIds": [
              12,
              13
            ],
            "bo": "SINGLE"
          },
          {
            "atomIds": [
              14,
              12
            ],
            "bo": "SINGLE"
          },
          {
            "atomIds": [
              15,
              14
            ],
            "bo": "SINGLE"
          },
          {
            "atomIds": [
              16,
              14
            ],
            "bo": "SINGLE"
          },
          {
            "atomIds": [
              17,
              14
            ],
            "bo": "SINGLE"
          },
          {
            "atomIds": [
              17,
              20
            ],
            "bo": "SINGLE"
          },
          {
            "atomIds": [
              18,
              17
            ],
            "bo": "SINGLE"
          },
          {
            "atomIds": [
              19,
              17
            ],
            "bo": "SINGLE"
          },
          {
            "atomIds": [
              20,
              1
            ],
            "bo": "SINGLE"
          },
          {
            "atomIds": [
              21,
              20
            ],
            "bo": "SINGLE"
          },
          {
            "atomIds": [
              22,
              20
            ],
            "bo": "SINGLE"
          }
        ]
      },
      "vertexId": 102,
      "buildingBlockId": 39,
      "buildingBlockType": "FRAGMENT",
      "isRCV": false,
      "properties": {
        "ATTACHMENT_POINTS": "1#LPhosphineSubM:0:SINGLE:7.9272%-2.5174%6.3831,MPhosphine:1:SINGLE:5.3681%-0.8345%7.9017 "
      },
      "uniquefyingPropertyKeys": [],
      "allowedMutationTypes": [
        "DELETE",
        "EXTEND",
        "CHANGEBRANCH",
        "CHANGELINK",
        "ADDLINK",
        "DELETELINK",
        "DELETECHAIN"
      ],
      "vertexType": "MolecularFragment"
    },
    {
      "lstAPs": [
        {
          "id": 93869,
          "atomPositionNumber": 0,
          "atomPositionNumberInMol": 43,
          "apClass": {
            "rule": "Xlig",
            "subClass": 1,
            "bndTyp": "SINGLE"
          },
          "dirVec": {
            "x": -0.1753,
            "y": 0.0948,
            "z": -0.4464
          }
        }
      ],
      "lstSymAPs": [],
      "mol": {
        "atoms": [
          {
            "elSymbol": "O",
            "p3d": {
              "x": -0.3534,
              "y": 2.1044,
              "z": -0.7339
            }
          },
          {
            "elSymbol": "C",
            "p3d": {
              "x": -0.5345,
              "y": 2.7646,
              "z": 0.4801
            }
          },
          {
            "elSymbol": "H",
            "p3d": {
              "x": -0.3728,
              "y": 3.8337,
              "z": 0.2724
            }
          },
          {
            "elSymbol": "H",
            "p3d": {
              "x": 0.1816,
              "y": 2.4161,
              "z": 1.2384
            }
          },
          {
            "elSymbol": "H",
            "p3d": {
              "x": -1.553,
              "y": 2.6149,
              "z": 0.8489
            }
          }
        ],
        "bonds": [
          {
            "atomIds": [
              1,
              2
            ],
            "bo": "SINGLE"
          },
          {
            "atomIds": [
              1,
              3
            ],
            "bo": "SINGLE"
          },
          {
            "atomIds": [
              1,
              4
            ],
            "bo": "SINGLE"
          },
          {
            "atomIds": [
              0,
              1
            ],
            "bo": "SINGLE"
          }
        ]
      },
      "vertexId": 86,
      "buildingBlockId": 64,
      "buildingBlockType": "FRAGMENT",
      "isRCV": false,
      "properties": {
        "ATTACHMENT_POINTS": "1#Xlig:1:SINGLE:-0.1753%0.0948%-0.4464 "
      },
      "uniquefyingPropertyKeys": [],
      "allowedMutationTypes": [
        "DELETE",
        "EXTEND",
        "CHANGEBRANCH",
        "CHANGELINK",
        "ADDLINK",
        "DELETELINK",
        "DELETECHAIN"
      ],
      "vertexType": "MolecularFragment"
    },
    {
      "lstAPs": [
        {
          "id": 93894,
          "atomPositionNumber": 1,
          "atomPositionNumberInMol": 34,
          "apClass": {
            "rule": "SubRM",
            "subClass": 1,
            "bndTyp": "SINGLE"
          },
          "dirVec": {
            "x": 0.2868,
            "y": 0.385,
            "z": -0.643
          }
        }
      ],
      "lstSymAPs": [],
      "mol": {
        "atoms": [
          {
            "elSymbol": "C",
            "p3d": {
              "x": 1.141,
              "y": 1.0262,
              "z": 1.6347
            }
          },
          {
            "elSymbol": "C",
            "p3d": {
              "x": 0.3967,
              "y": -0.0479,
              "z": 0.8227
            }
          },
          {
            "elSymbol": "C",
            "p3d": {
              "x": 1.1459,
              "y": -1.371,
              "z": 0.9201
            }
          },
          {
            "elSymbol": "H",
            "p3d": {
              "x": 2.1461,
              "y": -1.2583,
              "z": 0.4976
            }
          },
          {
            "elSymbol": "H",
            "p3d": {
              "x": 0.6013,
              "y": -2.1408,
              "z": 0.3461
            }
          },
          {
            "elSymbol": "H",
            "p3d": {
              "x": 1.2113,
              "y": -1.6946,
              "z": 1.9559
            }
          },
          {
            "elSymbol": "H",
            "p3d": {
              "x": 2.1541,
              "y": 1.1435,
              "z": 1.2119
            }
          },
          {
            "elSymbol": "H",
            "p3d": {
              "x": 0.6143,
              "y": 1.976,
              "z": 1.5626
            }
          },
          {
            "elSymbol": "H",
            "p3d": {
              "x": 1.2058,
              "y": 0.7088,
              "z": 2.6868
            }
          },
          {
            "elSymbol": "H",
            "p3d": {
              "x": -0.6215,
              "y": -0.1789,
              "z": 1.2377
            }
          }
        ],
        "bonds": [
          {
            "atomIds": [
              0,
              1
            ],
            "bo": "SINGLE"
          },
          {
            "atomIds": [
              1,
              2
            ],
            "bo": "SINGLE"
          },
          {
            "atomIds": [
              2,
              3
            ],
            "bo": "SINGLE"
          },
          {
            "atomIds": [
              2,
              4
            ],
            "bo": "SINGLE"
          },
          {
            "atomIds": [
              2,
              5
            ],
            "bo": "SINGLE"
          },
          {
            "atomIds": [
              0,
              6
            ],
            "bo": "SINGLE"
          },
          {
            "atomIds": [
              0,
              7
            ],
            "bo": "SINGLE"
          },
          {
            "atomIds": [
              0,
              8
            ],
            "bo": "SINGLE"
          },
          {
            "atomIds": [
              1,
              9
            ],
            "bo": "SINGLE"
          }
        ]
      },
      "vertexId": 70906,
      "buildingBlockId": 32,
      "buildingBlockType": "FRAGMENT",
      "isRCV": false,
      "properties": {
        "ATTACHMENT_POINTS": "2#SubRM:1:SINGLE:0.2868%0.3850%-0.6430 "
      },
      "uniquefyingPropertyKeys": [],
      "allowedMutationTypes": [
        "DELETE",
        "EXTEND",
        "CHANGEBRANCH",
        "CHANGELINK",
        "ADDLINK",
        "DELETELINK",
        "DELETECHAIN"
      ],
      "vertexType": "MolecularFragment"
    }
  ],
  "gEdges": [
    {
      "srcAPID": 93863,
      "trgAPID": 93866,
      "bondType": "SINGLE"
    },
    {
      "srcAPID": 93865,
      "trgAPID": 93868,
      "bondType": "SINGLE"
    },
    {
      "srcAPID": 93864,
      "trgAPID": 93869,
      "bondType": "SINGLE"
    },
    {
      "srcAPID": 93867,
      "trgAPID": 93894,
      "bondType": "SINGLE"
    }
  ],
  "gRings": [],
  "symVertices": []
}

> <SMILES>
[Pt](C#O)(OC([H])([H])[H])([P]1(C2([H])C([H])([H])C([H])([H])C(C1([H])C([H])([H])C(C2([H])[H])([H])[H])([H])[H])C(C([H])([H])[H])(C([H])([H])[H])[H])OC([H])([H])[H]

$$$$
