M00004194
  CDK     04222210123D

 48 50  0  0  0  0  0  0  0  0999 V2000
   -0.0773   -2.3802    0.1982 Pt  0  0  0  0  0  0  0  0  0  0  0  0
   -0.0640   -4.3324    0.2194 C   0  0  0  0  0  0  0  0  0  0  0  0
   -0.0595   -5.4733    0.2534 O   0  0  0  0  0  0  0  0  0  0  0  0
   -2.1224   -2.5105    0.4821 O   0  0  0  0  0  0  0  0  0  0  0  0
   -2.8210   -2.4446   -0.7369 C   0  0  0  0  0  0  0  0  0  0  0  0
   -3.8206   -2.8573   -0.5337 H   0  0  0  0  0  0  0  0  0  0  0  0
   -2.3130   -3.0460   -1.5009 H   0  0  0  0  0  0  0  0  0  0  0  0
   -2.9077   -1.3992   -1.0619 H   0  0  0  0  0  0  0  0  0  0  0  0
   -0.0552   -0.1000    0.2080 P   0  0  0  0  0  0  0  0  0  0  0  0
   -0.6837    0.6036   -1.3806 C   0  0  0  0  0  0  0  0  0  0  0  0
   -1.6493    1.7262   -3.7435 C   0  0  0  0  0  0  0  0  0  0  0  0
   -0.3978   -0.0257   -2.6021 C   0  0  0  0  0  0  0  0  0  0  0  0
   -1.4487    1.7743   -1.3344 C   0  0  0  0  0  0  0  0  0  0  0  0
   -1.9329    2.3373   -2.5163 C   0  0  0  0  0  0  0  0  0  0  0  0
   -0.8899    0.5584   -3.7866 C   0  0  0  0  0  0  0  0  0  0  0  0
   -1.6930    2.2705   -0.3885 H   0  0  0  0  0  0  0  0  0  0  0  0
   -2.5318    3.2461   -2.4835 H   0  0  0  0  0  0  0  0  0  0  0  0
   -0.6766    0.0900   -4.7470 H   0  0  0  0  0  0  0  0  0  0  0  0
   -2.0258    2.1650   -4.6690 H   0  0  0  0  0  0  0  0  0  0  0  0
    0.4032   -1.2811   -2.7105 C   0  0  0  0  0  0  0  0  0  0  0  0
    0.5161   -1.6202   -3.7521 H   0  0  0  0  0  0  0  0  0  0  0  0
   -0.0594   -2.1329   -2.1708 H   0  0  0  0  0  0  0  0  0  0  0  0
    1.4359   -1.1633   -2.3342 H   0  0  0  0  0  0  0  0  0  0  0  0
   -1.0812    0.5367    1.4880 N   0  0  0  0  0  0  0  0  0  0  0  0
   -0.8948    1.7926    2.1308 C   0  0  0  0  0  0  0  0  0  0  0  0
   -0.0814    2.4539    1.8928 H   0  0  0  0  0  0  0  0  0  0  0  0
   -1.9024    1.9353    3.0665 C   0  0  0  0  0  0  0  0  0  0  0  0
   -2.0553    2.7673    3.7253 H   0  0  0  0  0  0  0  0  0  0  0  0
   -2.7298    0.7622    3.0174 C   0  0  0  0  0  0  0  0  0  0  0  0
   -3.5897    0.5889    3.6338 H   0  0  0  0  0  0  0  0  0  0  0  0
   -2.2208   -0.0876    2.0527 C   0  0  0  0  0  0  0  0  0  0  0  0
   -2.5693   -1.0715    1.7279 H   0  0  0  0  0  0  0  0  0  0  0  0
    1.5891    0.6430    0.5542 C   0  0  0  0  0  0  0  0  0  0  0  0
    4.0928    1.7574    1.0401 C   0  0  0  0  0  0  0  0  0  0  0  0
    2.2744    0.2912    1.7288 C   0  0  0  0  0  0  0  0  0  0  0  0
    2.1422    1.5349   -0.3716 C   0  0  0  0  0  0  0  0  0  0  0  0
    3.3955    2.0955   -0.1283 C   0  0  0  0  0  0  0  0  0  0  0  0
    3.5386    0.8709    1.9601 C   0  0  0  0  0  0  0  0  0  0  0  0
    1.6177    1.8071   -1.2924 H   0  0  0  0  0  0  0  0  0  0  0  0
    3.8367    2.7851   -0.8452 H   0  0  0  0  0  0  0  0  0  0  0  0
    4.0938    0.6093    2.8605 H   0  0  0  0  0  0  0  0  0  0  0  0
    5.0774    2.1894    1.2266 H   0  0  0  0  0  0  0  0  0  0  0  0
    1.7180   -0.6474    2.7490 C   0  0  0  0  0  0  0  0  0  0  0  0
    2.4785   -0.9693    3.4774 H   0  0  0  0  0  0  0  0  0  0  0  0
    1.3203   -1.5860    2.3196 H   0  0  0  0  0  0  0  0  0  0  0  0
    0.9089   -0.1793    3.3362 H   0  0  0  0  0  0  0  0  0  0  0  0
    1.8863   -2.4137   -0.0461 C   0  0  0  0  0  0  0  0  0  0  0  0
    3.0286   -2.4708   -0.2125 N   0  0  0  0  0  0  0  0  0  0  0  0
  2  3  3  0  0  0  0
  1  2  1  0  0  0  0
  5  6  1  0  0  0  0
  5  7  1  0  0  0  0
  5  8  1  0  0  0  0
  4  5  1  0  0  0  0
  1  4  1  0  0  0  0
  1  9  1  0  0  0  0
 10 13  1  0  0  0  0
 13 14  2  0  0  0  0
 11 14  1  0  0  0  0
 11 15  2  0  0  0  0
 12 15  1  0  0  0  0
 10 12  2  0  0  0  0
 14 17  1  0  0  0  0
 15 18  1  0  0  0  0
 11 19  1  0  0  0  0
 13 16  1  0  0  0  0
 20 21  1  0  0  0  0
 20 22  1  0  0  0  0
 20 23  1  0  0  0  0
 12 20  1  0  0  0  0
  9 10  1  0  0  0  0
 24 25  1  0  0  0  0
 25 26  1  0  0  0  0
 27 25  2  0  0  0  0
 28 27  1  0  0  0  0
 29 27  1  0  0  0  0
 30 29  1  0  0  0  0
 31 24  1  0  0  0  0
 32 31  1  0  0  0  0
 29 31  2  0  0  0  0
  9 24  1  0  0  0  0
 33 36  1  0  0  0  0
 36 37  2  0  0  0  0
 34 37  1  0  0  0  0
 34 38  2  0  0  0  0
 35 38  1  0  0  0  0
 33 35  2  0  0  0  0
 37 40  1  0  0  0  0
 38 41  1  0  0  0  0
 34 42  1  0  0  0  0
 36 39  1  0  0  0  0
 43 44  1  0  0  0  0
 43 45  1  0  0  0  0
 43 46  1  0  0  0  0
 35 43  1  0  0  0  0
  9 33  1  0  0  0  0
 47 48  3  0  0  0  0
  1 47  1  0  0  0  0
M  END
> <PM6_ENERGY>
107.878

> <UID>
KXMJWXNMPCZBIA-MRBFPAFWNA-N

> <FITNESS>
1.14142

> <GCODE>
4933

> <GraphENC>
4933 72_1_0,80_65_1,101_4_1,87_66_1,97066_37_1,96535_10_1,96548_37_1, 72_0_80_0_SINGLE_Xlig:0_Xlig:1,72_2_101_3_SINGLE_scaff:0_MMonoAminoPhosphine:1,72_1_87_0_SINGLE_Xlig:0_Xlig:1,101_2_97066_0_SINGLE_LMonoAminoPhosphineSubR:0_SubArM:1,101_0_96535_0_SINGLE_LMonoAminoPhosphineN:0_LAminoPhosphineCycloN:1,101_1_96548_0_SINGLE_LMonoAminoPhosphineSubR:0_SubArM:1, SymmetricSet [symIds=[97066, 96548]] 

> <GraphJson>
{
  "graphId": 4933,
  "gVertices": [
    {
      "lstAPs": [
        {
          "id": 127705,
          "atomPositionNumber": 0,
          "atomPositionNumberInMol": 0,
          "apClass": {
            "rule": "Xlig",
            "subClass": 0,
            "bndTyp": "SINGLE"
          },
          "dirVec": {
            "x": -2.3339,
            "y": -0.0087,
            "z": 0.8172
          }
        },
        {
          "id": 127706,
          "atomPositionNumber": 0,
          "atomPositionNumberInMol": 0,
          "apClass": {
            "rule": "Xlig",
            "subClass": 0,
            "bndTyp": "SINGLE"
          },
          "dirVec": {
            "x": 2.336,
            "y": -5.0E-4,
            "z": 0.829
          }
        },
        {
          "id": 127707,
          "atomPositionNumber": 0,
          "atomPositionNumberInMol": 0,
          "apClass": {
            "rule": "scaff",
            "subClass": 0,
            "bndTyp": "SINGLE"
          },
          "dirVec": {
            "x": -0.0095,
            "y": 0.0046,
            "z": -1.7113
          }
        }
      ],
      "lstSymAPs": [
        {
          "symIds": [
            0,
            1
          ]
        }
      ],
      "mol": {
        "atoms": [
          {
            "elSymbol": "Pt",
            "p3d": {
              "x": -0.0098,
              "y": 0.0049,
              "z": 0.6289
            }
          },
          {
            "elSymbol": "C",
            "p3d": {
              "x": -6.0E-4,
              "y": 0.0016,
              "z": 2.5609
            }
          },
          {
            "elSymbol": "O",
            "p3d": {
              "x": 0.0025,
              "y": -0.0041,
              "z": 3.6974
            }
          },
          {
            "elSymbol": "Du",
            "p3d": {
              "x": -0.007,
              "y": 1.0013,
              "z": 0.6372
            }
          },
          {
            "elSymbol": "Du",
            "p3d": {
              "x": -0.0014,
              "y": 0.9902,
              "z": 2.5698
            }
          }
        ],
        "bonds": [
          {
            "atomIds": [
              1,
              2
            ],
            "bo": "TRIPLE"
          },
          {
            "atomIds": [
              0,
              1
            ],
            "bo": "SINGLE"
          },
          {
            "atomIds": [
              3,
              0
            ],
            "bo": "SINGLE"
          },
          {
            "atomIds": [
              4,
              1
            ],
            "bo": "SINGLE"
          }
        ]
      },
      "vertexId": 72,
      "buildingBlockId": 0,
      "buildingBlockType": "SCAFFOLD",
      "isRCV": false,
      "properties": {
        "ATTACHMENT_POINTS": "1#Xlig:0:SINGLE:-2.3339%-0.0087%0.8172,Xlig:0:SINGLE:2.3360%-0.0005%0.8290,scaff:0:SINGLE:-0.0095%0.0046%-1.7113 "
      },
      "uniquefyingPropertyKeys": [],
      "allowedMutationTypes": [
        "DELETE",
        "EXTEND",
        "CHANGEBRANCH",
        "CHANGELINK",
        "ADDLINK",
        "DELETELINK",
        "DELETECHAIN"
      ],
      "vertexType": "MolecularFragment"
    },
    {
      "lstAPs": [
        {
          "id": 127708,
          "atomPositionNumber": 0,
          "atomPositionNumberInMol": 5,
          "apClass": {
            "rule": "Xlig",
            "subClass": 1,
            "bndTyp": "SINGLE"
          },
          "dirVec": {
            "x": -0.1753,
            "y": 0.0948,
            "z": -0.4464
          }
        }
      ],
      "lstSymAPs": [],
      "mol": {
        "atoms": [
          {
            "elSymbol": "O",
            "p3d": {
              "x": -0.3534,
              "y": 2.1044,
              "z": -0.7339
            }
          },
          {
            "elSymbol": "C",
            "p3d": {
              "x": -0.5345,
              "y": 2.7646,
              "z": 0.4801
            }
          },
          {
            "elSymbol": "H",
            "p3d": {
              "x": -0.3728,
              "y": 3.8337,
              "z": 0.2724
            }
          },
          {
            "elSymbol": "H",
            "p3d": {
              "x": 0.1816,
              "y": 2.4161,
              "z": 1.2384
            }
          },
          {
            "elSymbol": "H",
            "p3d": {
              "x": -1.553,
              "y": 2.6149,
              "z": 0.8489
            }
          }
        ],
        "bonds": [
          {
            "atomIds": [
              1,
              2
            ],
            "bo": "SINGLE"
          },
          {
            "atomIds": [
              1,
              3
            ],
            "bo": "SINGLE"
          },
          {
            "atomIds": [
              1,
              4
            ],
            "bo": "SINGLE"
          },
          {
            "atomIds": [
              0,
              1
            ],
            "bo": "SINGLE"
          }
        ]
      },
      "vertexId": 80,
      "buildingBlockId": 64,
      "buildingBlockType": "FRAGMENT",
      "isRCV": false,
      "properties": {
        "ATTACHMENT_POINTS": "1#Xlig:1:SINGLE:-0.1753%0.0948%-0.4464 "
      },
      "uniquefyingPropertyKeys": [],
      "allowedMutationTypes": [
        "DELETE",
        "EXTEND",
        "CHANGEBRANCH",
        "CHANGELINK",
        "ADDLINK",
        "DELETELINK",
        "DELETECHAIN"
      ],
      "vertexType": "MolecularFragment"
    },
    {
      "lstAPs": [
        {
          "id": 127709,
          "atomPositionNumber": 0,
          "atomPositionNumberInMol": 10,
          "apClass": {
            "rule": "LMonoAminoPhosphineN",
            "subClass": 0,
            "bndTyp": "SINGLE"
          },
          "dirVec": {
            "x": 3.1471,
            "y": 10.0719,
            "z": 6.8843
          }
        },
        {
          "id": 127710,
          "atomPositionNumber": 0,
          "atomPositionNumberInMol": 10,
          "apClass": {
            "rule": "LMonoAminoPhosphineSubR",
            "subClass": 0,
            "bndTyp": "SINGLE"
          },
          "dirVec": {
            "x": 0.3842,
            "y": 9.4902,
            "z": 6.7015
          }
        },
        {
          "id": 127711,
          "atomPositionNumber": 0,
          "atomPositionNumberInMol": 10,
          "apClass": {
            "rule": "LMonoAminoPhosphineSubR",
            "subClass": 0,
            "bndTyp": "SINGLE"
          },
          "dirVec": {
            "x": 2.2197,
            "y": 7.8057,
            "z": 8.2724
          }
        },
        {
          "id": 127712,
          "atomPositionNumber": 0,
          "atomPositionNumberInMol": 10,
          "apClass": {
            "rule": "MMonoAminoPhosphine",
            "subClass": 1,
            "bndTyp": "SINGLE"
          },
          "dirVec": {
            "x": 2.6023,
            "y": 7.6121,
            "z": 4.8117
          }
        }
      ],
      "lstSymAPs": [
        {
          "symIds": [
            1,
            2
          ]
        }
      ],
      "mol": {
        "atoms": [
          {
            "elSymbol": "P",
            "p3d": {
              "x": 2.1045,
              "y": 8.7901,
              "z": 6.7495
            }
          }
        ],
        "bonds": []
      },
      "vertexId": 101,
      "buildingBlockId": 3,
      "buildingBlockType": "FRAGMENT",
      "isRCV": false,
      "properties": {
        "ATTACHMENT_POINTS": "1#LMonoAminoPhosphineN:0:SINGLE:3.1471%10.0719%6.8843,LMonoAminoPhosphineSubR:0:SINGLE:0.3842%9.4902%6.7015,LMonoAminoPhosphineSubR:0:SINGLE:2.2197%7.8057%8.2724,MMonoAminoPhosphine:1:SINGLE:2.6023%7.6121%4.8117 "
      },
      "uniquefyingPropertyKeys": [],
      "allowedMutationTypes": [
        "DELETE",
        "EXTEND",
        "CHANGEBRANCH",
        "CHANGELINK",
        "ADDLINK",
        "DELETELINK",
        "DELETECHAIN"
      ],
      "vertexType": "MolecularFragment"
    },
    {
      "lstAPs": [
        {
          "id": 127713,
          "atomPositionNumber": 0,
          "atomPositionNumberInMol": 48,
          "apClass": {
            "rule": "Xlig",
            "subClass": 1,
            "bndTyp": "SINGLE"
          },
          "dirVec": {
            "x": 0.0192,
            "y": -0.0048,
            "z": -0.5645
          }
        }
      ],
      "lstSymAPs": [],
      "mol": {
        "atoms": [
          {
            "elSymbol": "C",
            "p3d": {
              "x": -1.967,
              "y": -0.0075,
              "z": -0.4937
            }
          },
          {
            "elSymbol": "N",
            "p3d": {
              "x": -3.1263,
              "y": -0.0054,
              "z": -0.4354
            }
          },
          {
            "elSymbol": "Du",
            "p3d": {
              "x": -1.9744,
              "y": 0.9926,
              "z": -0.5036
            }
          }
        ],
        "bonds": [
          {
            "atomIds": [
              0,
              1
            ],
            "bo": "TRIPLE"
          },
          {
            "atomIds": [
              2,
              0
            ],
            "bo": "SINGLE"
          }
        ]
      },
      "vertexId": 87,
      "buildingBlockId": 65,
      "buildingBlockType": "FRAGMENT",
      "isRCV": false,
      "properties": {
        "ATTACHMENT_POINTS": "1#Xlig:1:SINGLE:0.0192%-0.0048%-0.5645 "
      },
      "uniquefyingPropertyKeys": [],
      "allowedMutationTypes": [
        "DELETE",
        "EXTEND",
        "CHANGEBRANCH",
        "CHANGELINK",
        "ADDLINK",
        "DELETELINK",
        "DELETECHAIN"
      ],
      "vertexType": "MolecularFragment"
    },
    {
      "lstAPs": [
        {
          "id": 127750,
          "atomPositionNumber": 0,
          "atomPositionNumberInMol": 11,
          "apClass": {
            "rule": "SubArM",
            "subClass": 1,
            "bndTyp": "SINGLE"
          },
          "dirVec": {
            "x": 0.3016,
            "y": 0.3831,
            "z": -0.6449
          }
        }
      ],
      "lstSymAPs": [],
      "mol": {
        "atoms": [
          {
            "elSymbol": "C",
            "p3d": {
              "x": 1.7096,
              "y": 0.5525,
              "z": -1.2136
            }
          },
          {
            "elSymbol": "C",
            "p3d": {
              "x": 4.2502,
              "y": 0.8767,
              "z": -2.2636
            }
          },
          {
            "elSymbol": "C",
            "p3d": {
              "x": 2.3368,
              "y": 1.7899,
              "z": -1.1199
            }
          },
          {
            "elSymbol": "C",
            "p3d": {
              "x": 2.344,
              "y": -0.5151,
              "z": -1.819
            }
          },
          {
            "elSymbol": "C",
            "p3d": {
              "x": 3.6162,
              "y": -0.3625,
              "z": -2.3439
            }
          },
          {
            "elSymbol": "C",
            "p3d": {
              "x": 3.6039,
              "y": 1.9353,
              "z": -1.6584
            }
          },
          {
            "elSymbol": "H",
            "p3d": {
              "x": 1.8411,
              "y": -1.493,
              "z": -1.8837
            }
          },
          {
            "elSymbol": "H",
            "p3d": {
              "x": 4.113,
              "y": -1.2006,
              "z": -2.8069
            }
          },
          {
            "elSymbol": "H",
            "p3d": {
              "x": 4.1107,
              "y": 2.9115,
              "z": -1.5913
            }
          },
          {
            "elSymbol": "H",
            "p3d": {
              "x": 5.2516,
              "y": 0.992,
              "z": -2.67
            }
          },
          {
            "elSymbol": "C",
            "p3d": {
              "x": 1.6301,
              "y": 2.9729,
              "z": -0.4606
            }
          },
          {
            "elSymbol": "H",
            "p3d": {
              "x": 2.3743,
              "y": 3.6775,
              "z": -0.0646
            }
          },
          {
            "elSymbol": "H",
            "p3d": {
              "x": 1.0016,
              "y": 2.6144,
              "z": 0.3512
            }
          },
          {
            "elSymbol": "H",
            "p3d": {
              "x": 1.0097,
              "y": 3.4845,
              "z": -1.1971
            }
          }
        ],
        "bonds": [
          {
            "atomIds": [
              0,
              3
            ],
            "bo": "SINGLE"
          },
          {
            "atomIds": [
              3,
              4
            ],
            "bo": "DOUBLE"
          },
          {
            "atomIds": [
              1,
              4
            ],
            "bo": "SINGLE"
          },
          {
            "atomIds": [
              1,
              5
            ],
            "bo": "DOUBLE"
          },
          {
            "atomIds": [
              2,
              5
            ],
            "bo": "SINGLE"
          },
          {
            "atomIds": [
              0,
              2
            ],
            "bo": "DOUBLE"
          },
          {
            "atomIds": [
              4,
              7
            ],
            "bo": "SINGLE"
          },
          {
            "atomIds": [
              5,
              8
            ],
            "bo": "SINGLE"
          },
          {
            "atomIds": [
              1,
              9
            ],
            "bo": "SINGLE"
          },
          {
            "atomIds": [
              3,
              6
            ],
            "bo": "SINGLE"
          },
          {
            "atomIds": [
              10,
              11
            ],
            "bo": "SINGLE"
          },
          {
            "atomIds": [
              10,
              12
            ],
            "bo": "SINGLE"
          },
          {
            "atomIds": [
              10,
              13
            ],
            "bo": "SINGLE"
          },
          {
            "atomIds": [
              2,
              10
            ],
            "bo": "SINGLE"
          }
        ]
      },
      "vertexId": 97066,
      "buildingBlockId": 36,
      "buildingBlockType": "FRAGMENT",
      "isRCV": false,
      "properties": {
        "ATTACHMENT_POINTS": "1#SubArM:1:SINGLE:0.3016%0.3831%-0.6449 "
      },
      "uniquefyingPropertyKeys": [],
      "allowedMutationTypes": [
        "DELETE",
        "EXTEND",
        "CHANGEBRANCH",
        "CHANGELINK",
        "ADDLINK",
        "DELETELINK",
        "DELETECHAIN"
      ],
      "vertexType": "MolecularFragment"
    },
    {
      "lstAPs": [
        {
          "id": 127751,
          "atomPositionNumber": 0,
          "atomPositionNumberInMol": 25,
          "apClass": {
            "rule": "LAminoPhosphineCycloN",
            "subClass": 1,
            "bndTyp": "SINGLE"
          },
          "dirVec": {
            "x": -1.3075,
            "y": 5.4354,
            "z": 7.3919
          }
        }
      ],
      "lstSymAPs": [],
      "mol": {
        "atoms": [
          {
            "elSymbol": "N",
            "p3d": {
              "x": -0.1435,
              "y": 5.4101,
              "z": 8.6586
            }
          },
          {
            "elSymbol": "C",
            "p3d": {
              "x": 1.0373,
              "y": 6.1488,
              "z": 8.6167
            }
          },
          {
            "elSymbol": "H",
            "p3d": {
              "x": 1.3388,
              "y": 6.7891,
              "z": 7.7925
            }
          },
          {
            "elSymbol": "C",
            "p3d": {
              "x": 1.7319,
              "y": 5.9048,
              "z": 9.7532
            }
          },
          {
            "elSymbol": "H",
            "p3d": {
              "x": 2.7093,
              "y": 6.3384,
              "z": 10.0093
            }
          },
          {
            "elSymbol": "C",
            "p3d": {
              "x": 0.9843,
              "y": 5.0017,
              "z": 10.5353
            }
          },
          {
            "elSymbol": "H",
            "p3d": {
              "x": 1.2753,
              "y": 4.5945,
              "z": 11.5061
            }
          },
          {
            "elSymbol": "C",
            "p3d": {
              "x": -0.1556,
              "y": 4.7101,
              "z": 9.8537
            }
          },
          {
            "elSymbol": "H",
            "p3d": {
              "x": -0.9523,
              "y": 4.0313,
              "z": 10.1872
            }
          }
        ],
        "bonds": [
          {
            "atomIds": [
              0,
              1
            ],
            "bo": "SINGLE"
          },
          {
            "atomIds": [
              1,
              2
            ],
            "bo": "SINGLE"
          },
          {
            "atomIds": [
              3,
              1
            ],
            "bo": "DOUBLE"
          },
          {
            "atomIds": [
              4,
              3
            ],
            "bo": "SINGLE"
          },
          {
            "atomIds": [
              5,
              3
            ],
            "bo": "SINGLE"
          },
          {
            "atomIds": [
              6,
              5
            ],
            "bo": "SINGLE"
          },
          {
            "atomIds": [
              7,
              0
            ],
            "bo": "SINGLE"
          },
          {
            "atomIds": [
              8,
              7
            ],
            "bo": "SINGLE"
          },
          {
            "atomIds": [
              5,
              7
            ],
            "bo": "DOUBLE"
          }
        ]
      },
      "vertexId": 96535,
      "buildingBlockId": 9,
      "buildingBlockType": "FRAGMENT",
      "isRCV": false,
      "properties": {
        "ATTACHMENT_POINTS": "1#LAminoPhosphineCycloN:1:SINGLE:-1.3075%5.4354%7.3919 "
      },
      "uniquefyingPropertyKeys": [],
      "allowedMutationTypes": [
        "DELETE",
        "EXTEND",
        "CHANGEBRANCH",
        "CHANGELINK",
        "ADDLINK",
        "DELETELINK",
        "DELETECHAIN"
      ],
      "vertexType": "MolecularFragment"
    },
    {
      "lstAPs": [
        {
          "id": 127752,
          "atomPositionNumber": 0,
          "atomPositionNumberInMol": 34,
          "apClass": {
            "rule": "SubArM",
            "subClass": 1,
            "bndTyp": "SINGLE"
          },
          "dirVec": {
            "x": 0.3016,
            "y": 0.3831,
            "z": -0.6449
          }
        }
      ],
      "lstSymAPs": [],
      "mol": {
        "atoms": [
          {
            "elSymbol": "C",
            "p3d": {
              "x": 1.7096,
              "y": 0.5525,
              "z": -1.2136
            }
          },
          {
            "elSymbol": "C",
            "p3d": {
              "x": 4.2502,
              "y": 0.8767,
              "z": -2.2636
            }
          },
          {
            "elSymbol": "C",
            "p3d": {
              "x": 2.3368,
              "y": 1.7899,
              "z": -1.1199
            }
          },
          {
            "elSymbol": "C",
            "p3d": {
              "x": 2.344,
              "y": -0.5151,
              "z": -1.819
            }
          },
          {
            "elSymbol": "C",
            "p3d": {
              "x": 3.6162,
              "y": -0.3625,
              "z": -2.3439
            }
          },
          {
            "elSymbol": "C",
            "p3d": {
              "x": 3.6039,
              "y": 1.9353,
              "z": -1.6584
            }
          },
          {
            "elSymbol": "H",
            "p3d": {
              "x": 1.8411,
              "y": -1.493,
              "z": -1.8837
            }
          },
          {
            "elSymbol": "H",
            "p3d": {
              "x": 4.113,
              "y": -1.2006,
              "z": -2.8069
            }
          },
          {
            "elSymbol": "H",
            "p3d": {
              "x": 4.1107,
              "y": 2.9115,
              "z": -1.5913
            }
          },
          {
            "elSymbol": "H",
            "p3d": {
              "x": 5.2516,
              "y": 0.992,
              "z": -2.67
            }
          },
          {
            "elSymbol": "C",
            "p3d": {
              "x": 1.6301,
              "y": 2.9729,
              "z": -0.4606
            }
          },
          {
            "elSymbol": "H",
            "p3d": {
              "x": 2.3743,
              "y": 3.6775,
              "z": -0.0646
            }
          },
          {
            "elSymbol": "H",
            "p3d": {
              "x": 1.0016,
              "y": 2.6144,
              "z": 0.3512
            }
          },
          {
            "elSymbol": "H",
            "p3d": {
              "x": 1.0097,
              "y": 3.4845,
              "z": -1.1971
            }
          }
        ],
        "bonds": [
          {
            "atomIds": [
              0,
              3
            ],
            "bo": "SINGLE"
          },
          {
            "atomIds": [
              3,
              4
            ],
            "bo": "DOUBLE"
          },
          {
            "atomIds": [
              1,
              4
            ],
            "bo": "SINGLE"
          },
          {
            "atomIds": [
              1,
              5
            ],
            "bo": "DOUBLE"
          },
          {
            "atomIds": [
              2,
              5
            ],
            "bo": "SINGLE"
          },
          {
            "atomIds": [
              0,
              2
            ],
            "bo": "DOUBLE"
          },
          {
            "atomIds": [
              4,
              7
            ],
            "bo": "SINGLE"
          },
          {
            "atomIds": [
              5,
              8
            ],
            "bo": "SINGLE"
          },
          {
            "atomIds": [
              1,
              9
            ],
            "bo": "SINGLE"
          },
          {
            "atomIds": [
              3,
              6
            ],
            "bo": "SINGLE"
          },
          {
            "atomIds": [
              10,
              11
            ],
            "bo": "SINGLE"
          },
          {
            "atomIds": [
              10,
              12
            ],
            "bo": "SINGLE"
          },
          {
            "atomIds": [
              10,
              13
            ],
            "bo": "SINGLE"
          },
          {
            "atomIds": [
              2,
              10
            ],
            "bo": "SINGLE"
          }
        ]
      },
      "vertexId": 96548,
      "buildingBlockId": 36,
      "buildingBlockType": "FRAGMENT",
      "isRCV": false,
      "properties": {
        "ATTACHMENT_POINTS": "1#SubArM:1:SINGLE:0.3016%0.3831%-0.6449 "
      },
      "uniquefyingPropertyKeys": [],
      "allowedMutationTypes": [
        "DELETE",
        "EXTEND",
        "CHANGEBRANCH",
        "CHANGELINK",
        "ADDLINK",
        "DELETELINK",
        "DELETECHAIN"
      ],
      "vertexType": "MolecularFragment"
    }
  ],
  "gEdges": [
    {
      "srcAPID": 127705,
      "trgAPID": 127708,
      "bondType": "SINGLE"
    },
    {
      "srcAPID": 127707,
      "trgAPID": 127712,
      "bondType": "SINGLE"
    },
    {
      "srcAPID": 127706,
      "trgAPID": 127713,
      "bondType": "SINGLE"
    },
    {
      "srcAPID": 127711,
      "trgAPID": 127750,
      "bondType": "SINGLE"
    },
    {
      "srcAPID": 127709,
      "trgAPID": 127751,
      "bondType": "SINGLE"
    },
    {
      "srcAPID": 127710,
      "trgAPID": 127752,
      "bondType": "SINGLE"
    }
  ],
  "gRings": [],
  "symVertices": [
    {
      "symIds": [
        97066,
        96548
      ]
    }
  ]
}

> <SMILES>
[Pt](C#O)(OC([H])([H])[H])([P](C=1C(=C(C(=C(C1C([H])([H])[H])[H])[H])[H])[H])(N2C([H])=C([H])C([H])=C2[H])C=3C(=C(C(=C(C3C([H])([H])[H])[H])[H])[H])[H])C#N

$$$$
