M00005365
  CDK     04222210373D

 41 41  0  0  0  0  0  0  0  0999 V2000
   -2.5866   -0.4095    0.1559 Pt  0  0  0  0  0  0  0  0  0  0  0  0
   -4.5098   -0.4862    0.4551 C   0  0  0  0  0  0  0  0  0  0  0  0
   -5.6391   -0.5452    0.6268 O   0  0  0  0  0  0  0  0  0  0  0  0
   -2.0349    1.5072    0.5774 O   0  0  0  0  0  0  0  0  0  0  0  0
   -3.1320    2.3512    0.8549 C   0  0  0  0  0  0  0  0  0  0  0  0
   -2.7040    3.3476    1.0331 H   0  0  0  0  0  0  0  0  0  0  0  0
   -3.6524    1.9987    1.7535 H   0  0  0  0  0  0  0  0  0  0  0  0
   -3.8037    2.3806   -0.0118 H   0  0  0  0  0  0  0  0  0  0  0  0
   -0.3251   -0.2635   -0.1408 P   0  0  0  0  0  0  0  0  0  0  0  0
    0.2536    1.3441   -0.9195 C   0  0  0  0  0  0  0  0  0  0  0  0
   -0.2604    1.4909   -1.8927 H   0  0  0  0  0  0  0  0  0  0  0  0
   -0.1157    2.1848   -0.2800 H   0  0  0  0  0  0  0  0  0  0  0  0
    1.5844   -1.5661   -1.8697 C   0  0  0  0  0  0  0  0  0  0  0  0
    2.3917   -1.4294   -1.1234 H   0  0  0  0  0  0  0  0  0  0  0  0
    1.8288   -2.5313   -2.3673 H   0  0  0  0  0  0  0  0  0  0  0  0
    1.6400   -0.4487   -2.9223 C   0  0  0  0  0  0  0  0  0  0  0  0
    2.2204   -0.8078   -3.7973 H   0  0  0  0  0  0  0  0  0  0  0  0
    0.6273   -0.2481   -3.3246 H   0  0  0  0  0  0  0  0  0  0  0  0
    1.7681    1.3848   -1.0787 C   0  0  0  0  0  0  0  0  0  0  0  0
    2.2921    0.8501   -0.2531 H   0  0  0  0  0  0  0  0  0  0  0  0
    2.1028    2.4408   -0.9742 H   0  0  0  0  0  0  0  0  0  0  0  0
    2.2739    0.8586   -2.4308 C   0  0  0  0  0  0  0  0  0  0  0  0
    2.1103    1.6361   -3.2053 H   0  0  0  0  0  0  0  0  0  0  0  0
    3.3735    0.7308   -2.3675 H   0  0  0  0  0  0  0  0  0  0  0  0
    0.2215   -1.7244   -1.2059 C   0  0  0  0  0  0  0  0  0  0  0  0
    0.1930   -2.6454   -0.5822 H   0  0  0  0  0  0  0  0  0  0  0  0
   -0.5667   -1.9019   -1.9760 H   0  0  0  0  0  0  0  0  0  0  0  0
    0.4101   -0.4673    1.6251 C   0  0  0  0  0  0  0  0  0  0  0  0
    1.8503   -0.9709    1.5668 C   0  0  0  0  0  0  0  0  0  0  0  0
    0.3357    0.8892    2.3232 C   0  0  0  0  0  0  0  0  0  0  0  0
   -0.5180   -1.4820    2.2991 C   0  0  0  0  0  0  0  0  0  0  0  0
    2.5085   -0.3074    0.9816 H   0  0  0  0  0  0  0  0  0  0  0  0
   -0.5598   -2.4574    1.7916 H   0  0  0  0  0  0  0  0  0  0  0  0
   -0.6640    1.3600    2.2410 H   0  0  0  0  0  0  0  0  0  0  0  0
    1.0654    1.6126    1.9414 H   0  0  0  0  0  0  0  0  0  0  0  0
   -0.1797   -1.6910    3.3245 H   0  0  0  0  0  0  0  0  0  0  0  0
   -1.5599   -1.1190    2.3930 H   0  0  0  0  0  0  0  0  0  0  0  0
    2.2771   -1.0151    2.5799 H   0  0  0  0  0  0  0  0  0  0  0  0
    1.9367   -1.9859    1.1587 H   0  0  0  0  0  0  0  0  0  0  0  0
    0.5346    0.7824    3.3980 H   0  0  0  0  0  0  0  0  0  0  0  0
   -2.9881   -2.6472   -0.3577 Cl  0  0  0  0  0  0  0  0  0  0  0  0
  2  3  3  0  0  0  0
  1  2  1  0  0  0  0
  5  6  1  0  0  0  0
  5  7  1  0  0  0  0
  5  8  1  0  0  0  0
  4  5  1  0  0  0  0
  1  4  1  0  0  0  0
 10  9  1  0  0  0  0
 11 10  1  0  0  0  0
 12 10  1  0  0  0  0
 13 14  1  0  0  0  0
 13 25  1  0  0  0  0
 15 13  1  0  0  0  0
 16 13  1  0  0  0  0
 17 16  1  0  0  0  0
 18 16  1  0  0  0  0
 19 10  1  0  0  0  0
 19 22  1  0  0  0  0
 20 19  1  0  0  0  0
 21 19  1  0  0  0  0
 22 16  1  0  0  0  0
 23 22  1  0  0  0  0
 24 22  1  0  0  0  0
 25  9  1  0  0  0  0
 26 25  1  0  0  0  0
 27 25  1  0  0  0  0
  1  9  1  0  0  0  0
 28 29  1  0  0  0  0
 28 30  1  0  0  0  0
 28 31  1  0  0  0  0
 29 32  1  0  0  0  0
 31 33  1  0  0  0  0
 30 34  1  0  0  0  0
 30 35  1  0  0  0  0
 31 36  1  0  0  0  0
 31 37  1  0  0  0  0
 29 38  1  0  0  0  0
 29 39  1  0  0  0  0
 30 40  1  0  0  0  0
  9 28  1  0  0  0  0
  1 41  1  0  0  0  0
M  END
> <PM6_ENERGY>
-559.647

> <UID>
RIZRBCQJBSSODX-FUGGQKFYNA-M

> <FITNESS>
1.1438

> <GCODE>
6174

> <GraphENC>
6174 72_1_0,80_65_1,103_41_1,88_67_1,122664_34_1, 72_0_80_0_SINGLE_Xlig:0_Xlig:1,72_2_103_1_SINGLE_scaff:0_MPhosphine:1,72_1_88_0_SINGLE_Xlig:0_Xlig:1,103_0_122664_0_SINGLE_LPhosphineSubM:0_SubRL:1, 

> <GraphJson>
{
  "graphId": 6174,
  "gVertices": [
    {
      "lstAPs": [
        {
          "id": 161030,
          "atomPositionNumber": 0,
          "atomPositionNumberInMol": 0,
          "apClass": {
            "rule": "Xlig",
            "subClass": 0,
            "bndTyp": "SINGLE"
          },
          "dirVec": {
            "x": -2.3339,
            "y": -0.0087,
            "z": 0.8172
          }
        },
        {
          "id": 161031,
          "atomPositionNumber": 0,
          "atomPositionNumberInMol": 0,
          "apClass": {
            "rule": "Xlig",
            "subClass": 0,
            "bndTyp": "SINGLE"
          },
          "dirVec": {
            "x": 2.336,
            "y": -5.0E-4,
            "z": 0.829
          }
        },
        {
          "id": 161032,
          "atomPositionNumber": 0,
          "atomPositionNumberInMol": 0,
          "apClass": {
            "rule": "scaff",
            "subClass": 0,
            "bndTyp": "SINGLE"
          },
          "dirVec": {
            "x": -0.0095,
            "y": 0.0046,
            "z": -1.7113
          }
        }
      ],
      "lstSymAPs": [
        {
          "symIds": [
            0,
            1
          ]
        }
      ],
      "mol": {
        "atoms": [
          {
            "elSymbol": "Pt",
            "p3d": {
              "x": -0.0098,
              "y": 0.0049,
              "z": 0.6289
            }
          },
          {
            "elSymbol": "C",
            "p3d": {
              "x": -6.0E-4,
              "y": 0.0016,
              "z": 2.5609
            }
          },
          {
            "elSymbol": "O",
            "p3d": {
              "x": 0.0025,
              "y": -0.0041,
              "z": 3.6974
            }
          },
          {
            "elSymbol": "Du",
            "p3d": {
              "x": -0.007,
              "y": 1.0013,
              "z": 0.6372
            }
          },
          {
            "elSymbol": "Du",
            "p3d": {
              "x": -0.0014,
              "y": 0.9902,
              "z": 2.5698
            }
          }
        ],
        "bonds": [
          {
            "atomIds": [
              1,
              2
            ],
            "bo": "TRIPLE"
          },
          {
            "atomIds": [
              0,
              1
            ],
            "bo": "SINGLE"
          },
          {
            "atomIds": [
              3,
              0
            ],
            "bo": "SINGLE"
          },
          {
            "atomIds": [
              4,
              1
            ],
            "bo": "SINGLE"
          }
        ]
      },
      "vertexId": 72,
      "buildingBlockId": 0,
      "buildingBlockType": "SCAFFOLD",
      "isRCV": false,
      "properties": {
        "ATTACHMENT_POINTS": "1#Xlig:0:SINGLE:-2.3339%-0.0087%0.8172,Xlig:0:SINGLE:2.3360%-0.0005%0.8290,scaff:0:SINGLE:-0.0095%0.0046%-1.7113 "
      },
      "uniquefyingPropertyKeys": [],
      "allowedMutationTypes": [
        "DELETE",
        "EXTEND",
        "CHANGEBRANCH",
        "CHANGELINK",
        "ADDLINK",
        "DELETELINK",
        "DELETECHAIN"
      ],
      "vertexType": "MolecularFragment"
    },
    {
      "lstAPs": [
        {
          "id": 161033,
          "atomPositionNumber": 0,
          "atomPositionNumberInMol": 5,
          "apClass": {
            "rule": "Xlig",
            "subClass": 1,
            "bndTyp": "SINGLE"
          },
          "dirVec": {
            "x": -0.1753,
            "y": 0.0948,
            "z": -0.4464
          }
        }
      ],
      "lstSymAPs": [],
      "mol": {
        "atoms": [
          {
            "elSymbol": "O",
            "p3d": {
              "x": -0.3534,
              "y": 2.1044,
              "z": -0.7339
            }
          },
          {
            "elSymbol": "C",
            "p3d": {
              "x": -0.5345,
              "y": 2.7646,
              "z": 0.4801
            }
          },
          {
            "elSymbol": "H",
            "p3d": {
              "x": -0.3728,
              "y": 3.8337,
              "z": 0.2724
            }
          },
          {
            "elSymbol": "H",
            "p3d": {
              "x": 0.1816,
              "y": 2.4161,
              "z": 1.2384
            }
          },
          {
            "elSymbol": "H",
            "p3d": {
              "x": -1.553,
              "y": 2.6149,
              "z": 0.8489
            }
          }
        ],
        "bonds": [
          {
            "atomIds": [
              1,
              2
            ],
            "bo": "SINGLE"
          },
          {
            "atomIds": [
              1,
              3
            ],
            "bo": "SINGLE"
          },
          {
            "atomIds": [
              1,
              4
            ],
            "bo": "SINGLE"
          },
          {
            "atomIds": [
              0,
              1
            ],
            "bo": "SINGLE"
          }
        ]
      },
      "vertexId": 80,
      "buildingBlockId": 64,
      "buildingBlockType": "FRAGMENT",
      "isRCV": false,
      "properties": {
        "ATTACHMENT_POINTS": "1#Xlig:1:SINGLE:-0.1753%0.0948%-0.4464 "
      },
      "uniquefyingPropertyKeys": [],
      "allowedMutationTypes": [
        "DELETE",
        "EXTEND",
        "CHANGEBRANCH",
        "CHANGELINK",
        "ADDLINK",
        "DELETELINK",
        "DELETECHAIN"
      ],
      "vertexType": "MolecularFragment"
    },
    {
      "lstAPs": [
        {
          "id": 161034,
          "atomPositionNumber": 0,
          "atomPositionNumberInMol": 10,
          "apClass": {
            "rule": "LPhosphineSubM",
            "subClass": 0,
            "bndTyp": "SINGLE"
          },
          "dirVec": {
            "x": 10.5741,
            "y": 2.388,
            "z": 3.5052
          }
        },
        {
          "id": 161035,
          "atomPositionNumber": 0,
          "atomPositionNumberInMol": 10,
          "apClass": {
            "rule": "MPhosphine",
            "subClass": 1,
            "bndTyp": "SINGLE"
          },
          "dirVec": {
            "x": 9.1744,
            "y": 5.4814,
            "z": 2.7926
          }
        }
      ],
      "lstSymAPs": [],
      "mol": {
        "atoms": [
          {
            "elSymbol": "P",
            "p3d": {
              "x": 10.8769,
              "y": 4.0494,
              "z": 2.7954
            }
          },
          {
            "elSymbol": "C",
            "p3d": {
              "x": 12.1798,
              "y": 4.6169,
              "z": 3.946
            }
          },
          {
            "elSymbol": "H",
            "p3d": {
              "x": 12.4917,
              "y": 5.6265,
              "z": 3.6448
            }
          },
          {
            "elSymbol": "H",
            "p3d": {
              "x": 11.7572,
              "y": 4.6829,
              "z": 4.9359
            }
          },
          {
            "elSymbol": "C",
            "p3d": {
              "x": 13.105,
              "y": 3.3948,
              "z": 1.0043
            }
          },
          {
            "elSymbol": "H",
            "p3d": {
              "x": 13.2476,
              "y": 2.4369,
              "z": 1.512
            }
          },
          {
            "elSymbol": "H",
            "p3d": {
              "x": 13.3426,
              "y": 3.2455,
              "z": -0.0523
            }
          },
          {
            "elSymbol": "C",
            "p3d": {
              "x": 14.0865,
              "y": 4.4359,
              "z": 1.5921
            }
          },
          {
            "elSymbol": "H",
            "p3d": {
              "x": 14.9506,
              "y": 4.4888,
              "z": 0.9474
            }
          },
          {
            "elSymbol": "H",
            "p3d": {
              "x": 13.5947,
              "y": 5.412,
              "z": 1.5613
            }
          },
          {
            "elSymbol": "C",
            "p3d": {
              "x": 13.4292,
              "y": 3.7407,
              "z": 4.0211
            }
          },
          {
            "elSymbol": "H",
            "p3d": {
              "x": 13.1512,
              "y": 2.7042,
              "z": 3.8217
            }
          },
          {
            "elSymbol": "H",
            "p3d": {
              "x": 13.8508,
              "y": 3.7903,
              "z": 5.0209
            }
          },
          {
            "elSymbol": "C",
            "p3d": {
              "x": 14.5313,
              "y": 4.1509,
              "z": 3.0247
            }
          },
          {
            "elSymbol": "H",
            "p3d": {
              "x": 15.0393,
              "y": 5.0334,
              "z": 3.3968
            }
          },
          {
            "elSymbol": "H",
            "p3d": {
              "x": 15.284,
              "y": 3.3564,
              "z": 2.9969
            }
          },
          {
            "elSymbol": "C",
            "p3d": {
              "x": 11.628,
              "y": 3.8158,
              "z": 1.119
            }
          },
          {
            "elSymbol": "H",
            "p3d": {
              "x": 11.0357,
              "y": 3.0492,
              "z": 0.6032
            }
          },
          {
            "elSymbol": "H",
            "p3d": {
              "x": 11.5015,
              "y": 4.7365,
              "z": 0.5787
            }
          }
        ],
        "bonds": [
          {
            "atomIds": [
              1,
              0
            ],
            "bo": "SINGLE"
          },
          {
            "atomIds": [
              2,
              1
            ],
            "bo": "SINGLE"
          },
          {
            "atomIds": [
              3,
              1
            ],
            "bo": "SINGLE"
          },
          {
            "atomIds": [
              4,
              5
            ],
            "bo": "SINGLE"
          },
          {
            "atomIds": [
              4,
              16
            ],
            "bo": "SINGLE"
          },
          {
            "atomIds": [
              6,
              4
            ],
            "bo": "SINGLE"
          },
          {
            "atomIds": [
              7,
              4
            ],
            "bo": "SINGLE"
          },
          {
            "atomIds": [
              8,
              7
            ],
            "bo": "SINGLE"
          },
          {
            "atomIds": [
              9,
              7
            ],
            "bo": "SINGLE"
          },
          {
            "atomIds": [
              10,
              1
            ],
            "bo": "SINGLE"
          },
          {
            "atomIds": [
              10,
              13
            ],
            "bo": "SINGLE"
          },
          {
            "atomIds": [
              11,
              10
            ],
            "bo": "SINGLE"
          },
          {
            "atomIds": [
              12,
              10
            ],
            "bo": "SINGLE"
          },
          {
            "atomIds": [
              13,
              7
            ],
            "bo": "SINGLE"
          },
          {
            "atomIds": [
              14,
              13
            ],
            "bo": "SINGLE"
          },
          {
            "atomIds": [
              15,
              13
            ],
            "bo": "SINGLE"
          },
          {
            "atomIds": [
              16,
              0
            ],
            "bo": "SINGLE"
          },
          {
            "atomIds": [
              17,
              16
            ],
            "bo": "SINGLE"
          },
          {
            "atomIds": [
              18,
              16
            ],
            "bo": "SINGLE"
          }
        ]
      },
      "vertexId": 103,
      "buildingBlockId": 40,
      "buildingBlockType": "FRAGMENT",
      "isRCV": false,
      "properties": {
        "ATTACHMENT_POINTS": "1#LPhosphineSubM:0:SINGLE:10.5741%2.3880%3.5052,MPhosphine:1:SINGLE:9.1744%5.4814%2.7926 "
      },
      "uniquefyingPropertyKeys": [],
      "allowedMutationTypes": [
        "DELETE",
        "EXTEND",
        "CHANGEBRANCH",
        "CHANGELINK",
        "ADDLINK",
        "DELETELINK",
        "DELETECHAIN"
      ],
      "vertexType": "MolecularFragment"
    },
    {
      "lstAPs": [
        {
          "id": 161036,
          "atomPositionNumber": 0,
          "atomPositionNumberInMol": 42,
          "apClass": {
            "rule": "Xlig",
            "subClass": 1,
            "bndTyp": "SINGLE"
          },
          "dirVec": {
            "x": -0.0053,
            "y": -0.0027,
            "z": 0.63
          }
        }
      ],
      "lstSymAPs": [],
      "mol": {
        "atoms": [
          {
            "elSymbol": "Cl",
            "p3d": {
              "x": 2.3243,
              "y": -0.0063,
              "z": 0.8189
            }
          }
        ],
        "bonds": []
      },
      "vertexId": 88,
      "buildingBlockId": 66,
      "buildingBlockType": "FRAGMENT",
      "isRCV": false,
      "properties": {
        "ATTACHMENT_POINTS": "1#Xlig:1:SINGLE:-0.0053%-0.0027%0.6300 "
      },
      "uniquefyingPropertyKeys": [],
      "allowedMutationTypes": [
        "DELETE",
        "EXTEND",
        "CHANGEBRANCH",
        "CHANGELINK",
        "ADDLINK",
        "DELETELINK",
        "DELETECHAIN"
      ],
      "vertexType": "MolecularFragment"
    },
    {
      "lstAPs": [
        {
          "id": 161061,
          "atomPositionNumber": 0,
          "atomPositionNumberInMol": 29,
          "apClass": {
            "rule": "SubRL",
            "subClass": 1,
            "bndTyp": "SINGLE"
          },
          "dirVec": {
            "x": 0.2857,
            "y": 0.39,
            "z": -0.6426
          }
        }
      ],
      "lstSymAPs": [],
      "mol": {
        "atoms": [
          {
            "elSymbol": "C",
            "p3d": {
              "x": 0.3842,
              "y": -0.0523,
              "z": 0.8329
            }
          },
          {
            "elSymbol": "C",
            "p3d": {
              "x": -0.6709,
              "y": 0.6882,
              "z": 1.6615
            }
          },
          {
            "elSymbol": "C",
            "p3d": {
              "x": 0.1554,
              "y": -1.558,
              "z": 0.9277
            }
          },
          {
            "elSymbol": "C",
            "p3d": {
              "x": 1.7886,
              "y": 0.2826,
              "z": 1.3761
            }
          },
          {
            "elSymbol": "H",
            "p3d": {
              "x": -0.5899,
              "y": 0.3841,
              "z": 2.6969
            }
          },
          {
            "elSymbol": "H",
            "p3d": {
              "x": 1.8617,
              "y": -0.0274,
              "z": 2.4067
            }
          },
          {
            "elSymbol": "H",
            "p3d": {
              "x": 0.2289,
              "y": -1.8635,
              "z": 1.9737
            }
          },
          {
            "elSymbol": "H",
            "p3d": {
              "x": 0.8983,
              "y": -2.0943,
              "z": 0.3332
            }
          },
          {
            "elSymbol": "H",
            "p3d": {
              "x": 2.5395,
              "y": -0.2409,
              "z": 0.7751
            }
          },
          {
            "elSymbol": "H",
            "p3d": {
              "x": 1.9553,
              "y": 1.3543,
              "z": 1.294
            }
          },
          {
            "elSymbol": "H",
            "p3d": {
              "x": -0.4937,
              "y": 1.7723,
              "z": 1.5856
            }
          },
          {
            "elSymbol": "H",
            "p3d": {
              "x": -1.6541,
              "y": 0.4601,
              "z": 1.2602
            }
          },
          {
            "elSymbol": "H",
            "p3d": {
              "x": -0.8514,
              "y": -1.792,
              "z": 0.5518
            }
          }
        ],
        "bonds": [
          {
            "atomIds": [
              0,
              1
            ],
            "bo": "SINGLE"
          },
          {
            "atomIds": [
              0,
              2
            ],
            "bo": "SINGLE"
          },
          {
            "atomIds": [
              0,
              3
            ],
            "bo": "SINGLE"
          },
          {
            "atomIds": [
              1,
              4
            ],
            "bo": "SINGLE"
          },
          {
            "atomIds": [
              3,
              5
            ],
            "bo": "SINGLE"
          },
          {
            "atomIds": [
              2,
              6
            ],
            "bo": "SINGLE"
          },
          {
            "atomIds": [
              2,
              7
            ],
            "bo": "SINGLE"
          },
          {
            "atomIds": [
              3,
              8
            ],
            "bo": "SINGLE"
          },
          {
            "atomIds": [
              3,
              9
            ],
            "bo": "SINGLE"
          },
          {
            "atomIds": [
              1,
              10
            ],
            "bo": "SINGLE"
          },
          {
            "atomIds": [
              1,
              11
            ],
            "bo": "SINGLE"
          },
          {
            "atomIds": [
              2,
              12
            ],
            "bo": "SINGLE"
          }
        ]
      },
      "vertexId": 122664,
      "buildingBlockId": 33,
      "buildingBlockType": "FRAGMENT",
      "isRCV": false,
      "properties": {
        "ATTACHMENT_POINTS": "1#SubRL:1:SINGLE:0.2857%0.3900%-0.6426 "
      },
      "uniquefyingPropertyKeys": [],
      "allowedMutationTypes": [
        "DELETE",
        "EXTEND",
        "CHANGEBRANCH",
        "CHANGELINK",
        "ADDLINK",
        "DELETELINK",
        "DELETECHAIN"
      ],
      "vertexType": "MolecularFragment"
    }
  ],
  "gEdges": [
    {
      "srcAPID": 161030,
      "trgAPID": 161033,
      "bondType": "SINGLE"
    },
    {
      "srcAPID": 161032,
      "trgAPID": 161035,
      "bondType": "SINGLE"
    },
    {
      "srcAPID": 161031,
      "trgAPID": 161036,
      "bondType": "SINGLE"
    },
    {
      "srcAPID": 161034,
      "trgAPID": 161061,
      "bondType": "SINGLE"
    }
  ],
  "gRings": [],
  "symVertices": []
}

> <SMILES>
[Pt](C#O)(OC([H])([H])[H])([P]1(C([H])([H])C(C(C(C([H])(C1([H])[H])[H])([H])[H])([H])[H])([H])[H])C(C([H])([H])[H])(C([H])([H])[H])C([H])([H])[H])Cl

$$$$
