M00020478
  CDK     04222216013D

 60 63  0  0  0  0  0  0  0  0999 V2000
   -0.1919   -2.4769    0.1924 Pt  0  0  0  0  0  0  0  0  0  0  0  0
   -0.4871   -4.4124    0.0311 C   0  0  0  0  0  0  0  0  0  0  0  0
   -0.7129   -5.5279   -0.0530 O   0  0  0  0  0  0  0  0  0  0  0  0
   -2.5112   -2.8251    0.2136 S   0  0  0  0  0  0  0  0  0  0  0  0
   -2.8998   -2.5784   -1.5403 C   0  0  0  0  0  0  0  0  0  0  0  0
   -3.7265   -3.2437   -1.8151 H   0  0  0  0  0  0  0  0  0  0  0  0
   -2.0391   -2.8009   -2.1794 H   0  0  0  0  0  0  0  0  0  0  0  0
   -3.2098   -1.5422   -1.7188 H   0  0  0  0  0  0  0  0  0  0  0  0
   -0.0464   -0.2056    0.3799 P   0  0  0  0  0  0  0  0  0  0  0  0
   -2.1555    1.8697    0.3098 H   0  0  0  0  0  0  0  0  0  0  0  0
   -2.0187    1.4632   -0.7042 C   0  0  0  0  0  0  0  0  0  0  0  0
   -1.1012    0.4891   -0.9922 C   0  0  0  0  0  0  0  0  0  0  0  0
   -2.7169    1.5470   -3.0224 C   0  0  0  0  0  0  0  0  0  0  0  0
   -0.9506   -0.0309   -2.3182 C   0  0  0  0  0  0  0  0  0  0  0  0
   -2.8448    1.9999   -1.7350 C   0  0  0  0  0  0  0  0  0  0  0  0
   -1.7661    0.5264   -3.3443 C   0  0  0  0  0  0  0  0  0  0  0  0
   -0.0316   -1.0725   -2.6786 C   0  0  0  0  0  0  0  0  0  0  0  0
   -3.5720    2.7689   -1.4789 H   0  0  0  0  0  0  0  0  0  0  0  0
   -2.2672    0.5043   -5.4607 H   0  0  0  0  0  0  0  0  0  0  0  0
   -3.3379    1.9530   -3.8222 H   0  0  0  0  0  0  0  0  0  0  0  0
    0.0739   -1.4974   -3.9806 C   0  0  0  0  0  0  0  0  0  0  0  0
    0.6047   -1.5519   -1.9219 H   0  0  0  0  0  0  0  0  0  0  0  0
    0.7808   -2.2842   -4.2500 H   0  0  0  0  0  0  0  0  0  0  0  0
   -0.7342   -0.9243   -5.0037 C   0  0  0  0  0  0  0  0  0  0  0  0
   -0.6235   -1.2838   -6.0260 H   0  0  0  0  0  0  0  0  0  0  0  0
   -1.6356    0.0605   -4.6913 C   0  0  0  0  0  0  0  0  0  0  0  0
   -0.5868    0.3012    1.9449 N   0  0  0  0  0  0  0  0  0  0  0  0
   -2.9677   -0.2613    2.5493 C   0  0  0  0  0  0  0  0  0  0  0  0
   -1.4862   -0.5865    2.7306 C   0  0  0  0  0  0  0  0  0  0  0  0
   -3.2936   -0.3913    1.5069 H   0  0  0  0  0  0  0  0  0  0  0  0
   -3.5889   -0.9381    3.1491 H   0  0  0  0  0  0  0  0  0  0  0  0
   -3.2017    0.7678    2.8472 H   0  0  0  0  0  0  0  0  0  0  0  0
   -1.2108   -0.4820    3.8077 H   0  0  0  0  0  0  0  0  0  0  0  0
   -1.2926   -1.6579    2.4645 H   0  0  0  0  0  0  0  0  0  0  0  0
   -1.3626    2.6328    2.5165 C   0  0  0  0  0  0  0  0  0  0  0  0
   -0.2213    1.6148    2.5320 C   0  0  0  0  0  0  0  0  0  0  0  0
   -2.2333    2.2675    3.0818 H   0  0  0  0  0  0  0  0  0  0  0  0
   -1.0493    3.5829    2.9622 H   0  0  0  0  0  0  0  0  0  0  0  0
   -1.7126    2.8416    1.4940 H   0  0  0  0  0  0  0  0  0  0  0  0
    0.6681    2.0448    2.0151 H   0  0  0  0  0  0  0  0  0  0  0  0
    0.0972    1.4355    3.5888 H   0  0  0  0  0  0  0  0  0  0  0  0
    1.0654    1.5220   -1.7191 H   0  0  0  0  0  0  0  0  0  0  0  0
    1.8278    1.3630   -0.9491 C   0  0  0  0  0  0  0  0  0  0  0  0
    1.6232    0.5831    0.1626 C   0  0  0  0  0  0  0  0  0  0  0  0
    4.0811    1.8794   -0.2280 C   0  0  0  0  0  0  0  0  0  0  0  0
    2.6542    0.3958    1.1399 C   0  0  0  0  0  0  0  0  0  0  0  0
    3.0767    2.0155   -1.1521 C   0  0  0  0  0  0  0  0  0  0  0  0
    3.8903    1.0751    0.9384 C   0  0  0  0  0  0  0  0  0  0  0  0
    2.5279   -0.4298    2.3066 C   0  0  0  0  0  0  0  0  0  0  0  0
    3.2154    2.6167   -2.0495 H   0  0  0  0  0  0  0  0  0  0  0  0
    5.8806    1.4718    1.7205 H   0  0  0  0  0  0  0  0  0  0  0  0
    5.0421    2.3759   -0.3703 H   0  0  0  0  0  0  0  0  0  0  0  0
    3.5561   -0.5412    3.2088 C   0  0  0  0  0  0  0  0  0  0  0  0
    1.6178   -1.0072    2.4772 H   0  0  0  0  0  0  0  0  0  0  0  0
    3.4568   -1.1816    4.0857 H   0  0  0  0  0  0  0  0  0  0  0  0
    4.7807    0.1593    3.0106 C   0  0  0  0  0  0  0  0  0  0  0  0
    5.5772    0.0469    3.7444 H   0  0  0  0  0  0  0  0  0  0  0  0
    4.9446    0.9432    1.8987 C   0  0  0  0  0  0  0  0  0  0  0  0
    1.8025   -2.6059    0.1334 C   0  0  0  0  0  0  0  0  0  0  0  0
    2.9429   -2.7780    0.0607 N   0  0  0  0  0  0  0  0  0  0  0  0
  2  3  3  0  0  0  0
  1  2  1  0  0  0  0
  5  6  1  0  0  0  0
  5  7  1  0  0  0  0
  5  8  1  0  0  0  0
  4  5  1  0  0  0  0
  1  4  1  0  0  0  0
  1  9  1  0  0  0  0
 10 11  1  0  0  0  0
 11 12  1  0  0  0  0
 11 15  2  0  0  0  0
 12 14  2  0  0  0  0
 14 16  1  0  0  0  0
 13 15  1  0  0  0  0
 13 16  2  0  0  0  0
 17 14  1  0  0  0  0
 16 26  1  0  0  0  0
 17 21  2  0  0  0  0
 21 24  1  0  0  0  0
 24 26  2  0  0  0  0
 13 20  1  0  0  0  0
 15 18  1  0  0  0  0
 17 22  1  0  0  0  0
 19 26  1  0  0  0  0
 24 25  1  0  0  0  0
 21 23  1  0  0  0  0
  9 12  1  0  0  0  0
  9 27  1  0  0  0  0
 28 29  1  0  0  0  0
 28 30  1  0  0  0  0
 28 31  1  0  0  0  0
 28 32  1  0  0  0  0
 29 33  1  0  0  0  0
 29 34  1  0  0  0  0
 27 29  1  0  0  0  0
 35 36  1  0  0  0  0
 35 37  1  0  0  0  0
 35 38  1  0  0  0  0
 35 39  1  0  0  0  0
 36 40  1  0  0  0  0
 36 41  1  0  0  0  0
 27 36  1  0  0  0  0
 42 43  1  0  0  0  0
 43 44  1  0  0  0  0
 43 47  2  0  0  0  0
 44 46  2  0  0  0  0
 46 48  1  0  0  0  0
 45 47  1  0  0  0  0
 45 48  2  0  0  0  0
 49 46  1  0  0  0  0
 48 58  1  0  0  0  0
 49 53  2  0  0  0  0
 53 56  1  0  0  0  0
 56 58  2  0  0  0  0
 45 52  1  0  0  0  0
 47 50  1  0  0  0  0
 49 54  1  0  0  0  0
 51 58  1  0  0  0  0
 56 57  1  0  0  0  0
 53 55  1  0  0  0  0
  9 44  1  0  0  0  0
 59 60  3  0  0  0  0
  1 59  1  0  0  0  0
M  END
> <PM6_ENERGY>
312.544

> <UID>
RCSDGBNXXFRHAI-ZAULYXNHNA-M

> <FITNESS>
1.14123

> <GCODE>
21839

> <GraphENC>
21839 72_1_0,79_64_1,101_4_1,87_66_1,380761_39_1,379921_6_1,379931_39_1,523842_32_1,523816_32_1, 72_0_79_0_SINGLE_Xlig:0_Xlig:1,72_2_101_3_SINGLE_scaff:0_MMonoAminoPhosphine:1,72_1_87_0_SINGLE_Xlig:0_Xlig:1,101_2_380761_0_SINGLE_LMonoAminoPhosphineSubR:0_SubArM:1,101_0_379921_0_SINGLE_LMonoAminoPhosphineN:0_LAminoPhosphineN:1,101_1_379931_0_SINGLE_LMonoAminoPhosphineSubR:0_SubArM:1,379921_2_523842_0_SINGLE_AminoPhosphineSubN:0_SubRS:1,379921_1_523816_0_SINGLE_AminoPhosphineSubN:0_SubRS:1, SymmetricSet [symIds=[380761, 379931]] SymmetricSet [symIds=[523842, 523816]] 

> <GraphJson>
{
  "graphId": 21839,
  "gVertices": [
    {
      "lstAPs": [
        {
          "id": 598060,
          "atomPositionNumber": 0,
          "atomPositionNumberInMol": 0,
          "apClass": {
            "rule": "Xlig",
            "subClass": 0,
            "bndTyp": "SINGLE"
          },
          "dirVec": {
            "x": -2.3339,
            "y": -0.0087,
            "z": 0.8172
          }
        },
        {
          "id": 598061,
          "atomPositionNumber": 0,
          "atomPositionNumberInMol": 0,
          "apClass": {
            "rule": "Xlig",
            "subClass": 0,
            "bndTyp": "SINGLE"
          },
          "dirVec": {
            "x": 2.336,
            "y": -5.0E-4,
            "z": 0.829
          }
        },
        {
          "id": 598062,
          "atomPositionNumber": 0,
          "atomPositionNumberInMol": 0,
          "apClass": {
            "rule": "scaff",
            "subClass": 0,
            "bndTyp": "SINGLE"
          },
          "dirVec": {
            "x": -0.0095,
            "y": 0.0046,
            "z": -1.7113
          }
        }
      ],
      "lstSymAPs": [
        {
          "symIds": [
            0,
            1
          ]
        }
      ],
      "mol": {
        "atoms": [
          {
            "elSymbol": "Pt",
            "p3d": {
              "x": -0.0098,
              "y": 0.0049,
              "z": 0.6289
            }
          },
          {
            "elSymbol": "C",
            "p3d": {
              "x": -6.0E-4,
              "y": 0.0016,
              "z": 2.5609
            }
          },
          {
            "elSymbol": "O",
            "p3d": {
              "x": 0.0025,
              "y": -0.0041,
              "z": 3.6974
            }
          },
          {
            "elSymbol": "Du",
            "p3d": {
              "x": -0.007,
              "y": 1.0013,
              "z": 0.6372
            }
          },
          {
            "elSymbol": "Du",
            "p3d": {
              "x": -0.0014,
              "y": 0.9902,
              "z": 2.5698
            }
          }
        ],
        "bonds": [
          {
            "atomIds": [
              1,
              2
            ],
            "bo": "TRIPLE"
          },
          {
            "atomIds": [
              0,
              1
            ],
            "bo": "SINGLE"
          },
          {
            "atomIds": [
              3,
              0
            ],
            "bo": "SINGLE"
          },
          {
            "atomIds": [
              4,
              1
            ],
            "bo": "SINGLE"
          }
        ]
      },
      "vertexId": 72,
      "buildingBlockId": 0,
      "buildingBlockType": "SCAFFOLD",
      "isRCV": false,
      "properties": {
        "ATTACHMENT_POINTS": "1#Xlig:0:SINGLE:-2.3339%-0.0087%0.8172,Xlig:0:SINGLE:2.3360%-0.0005%0.8290,scaff:0:SINGLE:-0.0095%0.0046%-1.7113 "
      },
      "uniquefyingPropertyKeys": [],
      "allowedMutationTypes": [
        "DELETE",
        "EXTEND",
        "CHANGEBRANCH",
        "CHANGELINK",
        "ADDLINK",
        "DELETELINK",
        "DELETECHAIN"
      ],
      "vertexType": "MolecularFragment"
    },
    {
      "lstAPs": [
        {
          "id": 598063,
          "atomPositionNumber": 0,
          "atomPositionNumberInMol": 5,
          "apClass": {
            "rule": "Xlig",
            "subClass": 1,
            "bndTyp": "SINGLE"
          },
          "dirVec": {
            "x": -0.102,
            "y": 0.0185,
            "z": -1.0265
          }
        }
      ],
      "lstSymAPs": [],
      "mol": {
        "atoms": [
          {
            "elSymbol": "S",
            "p3d": {
              "x": -0.3267,
              "y": 2.3403,
              "z": -1.0022
            }
          },
          {
            "elSymbol": "C",
            "p3d": {
              "x": -0.626,
              "y": 2.4866,
              "z": 0.7805
            }
          },
          {
            "elSymbol": "H",
            "p3d": {
              "x": 0.1766,
              "y": 3.089,
              "z": 1.2414
            }
          },
          {
            "elSymbol": "H",
            "p3d": {
              "x": -0.651,
              "y": 1.5065,
              "z": 1.2643
            }
          },
          {
            "elSymbol": "H",
            "p3d": {
              "x": -1.5658,
              "y": 2.981,
              "z": 0.9515
            }
          }
        ],
        "bonds": [
          {
            "atomIds": [
              1,
              2
            ],
            "bo": "SINGLE"
          },
          {
            "atomIds": [
              1,
              3
            ],
            "bo": "SINGLE"
          },
          {
            "atomIds": [
              1,
              4
            ],
            "bo": "SINGLE"
          },
          {
            "atomIds": [
              0,
              1
            ],
            "bo": "SINGLE"
          }
        ]
      },
      "vertexId": 79,
      "buildingBlockId": 63,
      "buildingBlockType": "FRAGMENT",
      "isRCV": false,
      "properties": {
        "ATTACHMENT_POINTS": "1#Xlig:1:SINGLE:-0.1020%0.0185%-1.0265 "
      },
      "uniquefyingPropertyKeys": [],
      "allowedMutationTypes": [
        "DELETE",
        "EXTEND",
        "CHANGEBRANCH",
        "CHANGELINK",
        "ADDLINK",
        "DELETELINK",
        "DELETECHAIN"
      ],
      "vertexType": "MolecularFragment"
    },
    {
      "lstAPs": [
        {
          "id": 598064,
          "atomPositionNumber": 0,
          "atomPositionNumberInMol": 10,
          "apClass": {
            "rule": "LMonoAminoPhosphineN",
            "subClass": 0,
            "bndTyp": "SINGLE"
          },
          "dirVec": {
            "x": 3.1471,
            "y": 10.0719,
            "z": 6.8843
          }
        },
        {
          "id": 598065,
          "atomPositionNumber": 0,
          "atomPositionNumberInMol": 10,
          "apClass": {
            "rule": "LMonoAminoPhosphineSubR",
            "subClass": 0,
            "bndTyp": "SINGLE"
          },
          "dirVec": {
            "x": 0.3842,
            "y": 9.4902,
            "z": 6.7015
          }
        },
        {
          "id": 598066,
          "atomPositionNumber": 0,
          "atomPositionNumberInMol": 10,
          "apClass": {
            "rule": "LMonoAminoPhosphineSubR",
            "subClass": 0,
            "bndTyp": "SINGLE"
          },
          "dirVec": {
            "x": 2.2197,
            "y": 7.8057,
            "z": 8.2724
          }
        },
        {
          "id": 598067,
          "atomPositionNumber": 0,
          "atomPositionNumberInMol": 10,
          "apClass": {
            "rule": "MMonoAminoPhosphine",
            "subClass": 1,
            "bndTyp": "SINGLE"
          },
          "dirVec": {
            "x": 2.6023,
            "y": 7.6121,
            "z": 4.8117
          }
        }
      ],
      "lstSymAPs": [
        {
          "symIds": [
            1,
            2
          ]
        }
      ],
      "mol": {
        "atoms": [
          {
            "elSymbol": "P",
            "p3d": {
              "x": 2.1045,
              "y": 8.7901,
              "z": 6.7495
            }
          }
        ],
        "bonds": []
      },
      "vertexId": 101,
      "buildingBlockId": 3,
      "buildingBlockType": "FRAGMENT",
      "isRCV": false,
      "properties": {
        "ATTACHMENT_POINTS": "1#LMonoAminoPhosphineN:0:SINGLE:3.1471%10.0719%6.8843,LMonoAminoPhosphineSubR:0:SINGLE:0.3842%9.4902%6.7015,LMonoAminoPhosphineSubR:0:SINGLE:2.2197%7.8057%8.2724,MMonoAminoPhosphine:1:SINGLE:2.6023%7.6121%4.8117 "
      },
      "uniquefyingPropertyKeys": [],
      "allowedMutationTypes": [
        "DELETE",
        "EXTEND",
        "CHANGEBRANCH",
        "CHANGELINK",
        "ADDLINK",
        "DELETELINK",
        "DELETECHAIN"
      ],
      "vertexType": "MolecularFragment"
    },
    {
      "lstAPs": [
        {
          "id": 598068,
          "atomPositionNumber": 0,
          "atomPositionNumberInMol": 60,
          "apClass": {
            "rule": "Xlig",
            "subClass": 1,
            "bndTyp": "SINGLE"
          },
          "dirVec": {
            "x": 0.0192,
            "y": -0.0048,
            "z": -0.5645
          }
        }
      ],
      "lstSymAPs": [],
      "mol": {
        "atoms": [
          {
            "elSymbol": "C",
            "p3d": {
              "x": -1.967,
              "y": -0.0075,
              "z": -0.4937
            }
          },
          {
            "elSymbol": "N",
            "p3d": {
              "x": -3.1263,
              "y": -0.0054,
              "z": -0.4354
            }
          },
          {
            "elSymbol": "Du",
            "p3d": {
              "x": -1.9744,
              "y": 0.9926,
              "z": -0.5036
            }
          }
        ],
        "bonds": [
          {
            "atomIds": [
              0,
              1
            ],
            "bo": "TRIPLE"
          },
          {
            "atomIds": [
              2,
              0
            ],
            "bo": "SINGLE"
          }
        ]
      },
      "vertexId": 87,
      "buildingBlockId": 65,
      "buildingBlockType": "FRAGMENT",
      "isRCV": false,
      "properties": {
        "ATTACHMENT_POINTS": "1#Xlig:1:SINGLE:0.0192%-0.0048%-0.5645 "
      },
      "uniquefyingPropertyKeys": [],
      "allowedMutationTypes": [
        "DELETE",
        "EXTEND",
        "CHANGEBRANCH",
        "CHANGELINK",
        "ADDLINK",
        "DELETELINK",
        "DELETECHAIN"
      ],
      "vertexType": "MolecularFragment"
    },
    {
      "lstAPs": [
        {
          "id": 598069,
          "atomPositionNumber": 2,
          "atomPositionNumberInMol": 13,
          "apClass": {
            "rule": "SubArM",
            "subClass": 1,
            "bndTyp": "SINGLE"
          },
          "dirVec": {
            "x": 0.2839,
            "y": 0.3907,
            "z": -0.6271
          }
        }
      ],
      "lstSymAPs": [],
      "mol": {
        "atoms": [
          {
            "elSymbol": "H",
            "p3d": {
              "x": 1.8079,
              "y": 2.6521,
              "z": -0.6457
            }
          },
          {
            "elSymbol": "C",
            "p3d": {
              "x": 2.3292,
              "y": 1.8028,
              "z": -1.1346
            }
          },
          {
            "elSymbol": "C",
            "p3d": {
              "x": 1.6928,
              "y": 0.5701,
              "z": -1.2214
            }
          },
          {
            "elSymbol": "C",
            "p3d": {
              "x": 4.26,
              "y": 0.9161,
              "z": -2.2564
            }
          },
          {
            "elSymbol": "C",
            "p3d": {
              "x": 2.3547,
              "y": -0.5116,
              "z": -1.8205
            }
          },
          {
            "elSymbol": "C",
            "p3d": {
              "x": 3.6118,
              "y": 1.9867,
              "z": -1.654
            }
          },
          {
            "elSymbol": "C",
            "p3d": {
              "x": 3.6519,
              "y": -0.333,
              "z": -2.339
            }
          },
          {
            "elSymbol": "C",
            "p3d": {
              "x": 1.7318,
              "y": -1.7781,
              "z": -1.8989
            }
          },
          {
            "elSymbol": "H",
            "p3d": {
              "x": 4.0936,
              "y": 2.9609,
              "z": -1.5808
            }
          },
          {
            "elSymbol": "H",
            "p3d": {
              "x": 5.3077,
              "y": -1.3005,
              "z": -3.3639
            }
          },
          {
            "elSymbol": "H",
            "p3d": {
              "x": 5.2705,
              "y": 1.0583,
              "z": -2.6578
            }
          },
          {
            "elSymbol": "C",
            "p3d": {
              "x": 2.3998,
              "y": -2.8526,
              "z": -2.5007
            }
          },
          {
            "elSymbol": "H",
            "p3d": {
              "x": 0.724,
              "y": -1.9306,
              "z": -1.4908
            }
          },
          {
            "elSymbol": "H",
            "p3d": {
              "x": 1.9155,
              "y": -3.8304,
              "z": -2.576
            }
          },
          {
            "elSymbol": "C",
            "p3d": {
              "x": 3.684,
              "y": -2.6697,
              "z": -3.0355
            }
          },
          {
            "elSymbol": "H",
            "p3d": {
              "x": 4.2028,
              "y": -3.5195,
              "z": -3.4955
            }
          },
          {
            "elSymbol": "C",
            "p3d": {
              "x": 4.3092,
              "y": -1.4197,
              "z": -2.9387
            }
          }
        ],
        "bonds": [
          {
            "atomIds": [
              0,
              1
            ],
            "bo": "SINGLE"
          },
          {
            "atomIds": [
              1,
              2
            ],
            "bo": "SINGLE"
          },
          {
            "atomIds": [
              1,
              5
            ],
            "bo": "DOUBLE"
          },
          {
            "atomIds": [
              2,
              4
            ],
            "bo": "DOUBLE"
          },
          {
            "atomIds": [
              4,
              6
            ],
            "bo": "SINGLE"
          },
          {
            "atomIds": [
              3,
              5
            ],
            "bo": "SINGLE"
          },
          {
            "atomIds": [
              3,
              6
            ],
            "bo": "DOUBLE"
          },
          {
            "atomIds": [
              7,
              4
            ],
            "bo": "SINGLE"
          },
          {
            "atomIds": [
              6,
              16
            ],
            "bo": "SINGLE"
          },
          {
            "atomIds": [
              7,
              11
            ],
            "bo": "DOUBLE"
          },
          {
            "atomIds": [
              11,
              14
            ],
            "bo": "SINGLE"
          },
          {
            "atomIds": [
              14,
              16
            ],
            "bo": "DOUBLE"
          },
          {
            "atomIds": [
              3,
              10
            ],
            "bo": "SINGLE"
          },
          {
            "atomIds": [
              5,
              8
            ],
            "bo": "SINGLE"
          },
          {
            "atomIds": [
              7,
              12
            ],
            "bo": "SINGLE"
          },
          {
            "atomIds": [
              9,
              16
            ],
            "bo": "SINGLE"
          },
          {
            "atomIds": [
              14,
              15
            ],
            "bo": "SINGLE"
          },
          {
            "atomIds": [
              11,
              13
            ],
            "bo": "SINGLE"
          }
        ]
      },
      "vertexId": 380761,
      "buildingBlockId": 38,
      "buildingBlockType": "FRAGMENT",
      "isRCV": false,
      "properties": {
        "ATTACHMENT_POINTS": "3#SubArM:1:SINGLE:0.2839%0.3907%-0.6271 "
      },
      "uniquefyingPropertyKeys": [],
      "allowedMutationTypes": [
        "DELETE",
        "EXTEND",
        "CHANGEBRANCH",
        "CHANGELINK",
        "ADDLINK",
        "DELETELINK",
        "DELETECHAIN"
      ],
      "vertexType": "MolecularFragment"
    },
    {
      "lstAPs": [
        {
          "id": 598070,
          "atomPositionNumber": 0,
          "atomPositionNumberInMol": 28,
          "apClass": {
            "rule": "LAminoPhosphineN",
            "subClass": 1,
            "bndTyp": "SINGLE"
          },
          "dirVec": {
            "x": 6.6462,
            "y": 11.4323,
            "z": 3.6382
          }
        },
        {
          "id": 598071,
          "atomPositionNumber": 0,
          "atomPositionNumberInMol": 28,
          "apClass": {
            "rule": "AminoPhosphineSubN",
            "subClass": 0,
            "bndTyp": "SINGLE"
          },
          "dirVec": {
            "x": 8.2507,
            "y": 9.4804,
            "z": 2.5125
          }
        },
        {
          "id": 598072,
          "atomPositionNumber": 0,
          "atomPositionNumberInMol": 28,
          "apClass": {
            "rule": "AminoPhosphineSubN",
            "subClass": 0,
            "bndTyp": "SINGLE"
          },
          "dirVec": {
            "x": 8.652,
            "y": 10.1585,
            "z": 4.8699
          }
        }
      ],
      "lstSymAPs": [
        {
          "symIds": [
            1,
            2
          ]
        }
      ],
      "mol": {
        "atoms": [
          {
            "elSymbol": "N",
            "p3d": {
              "x": 7.9829,
              "y": 10.4428,
              "z": 3.602
            }
          }
        ],
        "bonds": []
      },
      "vertexId": 379921,
      "buildingBlockId": 5,
      "buildingBlockType": "FRAGMENT",
      "isRCV": false,
      "properties": {
        "ATTACHMENT_POINTS": "1#LAminoPhosphineN:1:SINGLE:6.6462%11.4323%3.6382,AminoPhosphineSubN:0:SINGLE:8.2507%9.4804%2.5125,AminoPhosphineSubN:0:SINGLE:8.6520%10.1585%4.8699 "
      },
      "uniquefyingPropertyKeys": [],
      "allowedMutationTypes": [
        "DELETE",
        "EXTEND",
        "CHANGEBRANCH",
        "CHANGELINK",
        "ADDLINK",
        "DELETELINK",
        "DELETECHAIN"
      ],
      "vertexType": "MolecularFragment"
    },
    {
      "lstAPs": [
        {
          "id": 598073,
          "atomPositionNumber": 2,
          "atomPositionNumberInMol": 45,
          "apClass": {
            "rule": "SubArM",
            "subClass": 1,
            "bndTyp": "SINGLE"
          },
          "dirVec": {
            "x": 0.2839,
            "y": 0.3907,
            "z": -0.6271
          }
        }
      ],
      "lstSymAPs": [],
      "mol": {
        "atoms": [
          {
            "elSymbol": "H",
            "p3d": {
              "x": 1.8079,
              "y": 2.6521,
              "z": -0.6457
            }
          },
          {
            "elSymbol": "C",
            "p3d": {
              "x": 2.3292,
              "y": 1.8028,
              "z": -1.1346
            }
          },
          {
            "elSymbol": "C",
            "p3d": {
              "x": 1.6928,
              "y": 0.5701,
              "z": -1.2214
            }
          },
          {
            "elSymbol": "C",
            "p3d": {
              "x": 4.26,
              "y": 0.9161,
              "z": -2.2564
            }
          },
          {
            "elSymbol": "C",
            "p3d": {
              "x": 2.3547,
              "y": -0.5116,
              "z": -1.8205
            }
          },
          {
            "elSymbol": "C",
            "p3d": {
              "x": 3.6118,
              "y": 1.9867,
              "z": -1.654
            }
          },
          {
            "elSymbol": "C",
            "p3d": {
              "x": 3.6519,
              "y": -0.333,
              "z": -2.339
            }
          },
          {
            "elSymbol": "C",
            "p3d": {
              "x": 1.7318,
              "y": -1.7781,
              "z": -1.8989
            }
          },
          {
            "elSymbol": "H",
            "p3d": {
              "x": 4.0936,
              "y": 2.9609,
              "z": -1.5808
            }
          },
          {
            "elSymbol": "H",
            "p3d": {
              "x": 5.3077,
              "y": -1.3005,
              "z": -3.3639
            }
          },
          {
            "elSymbol": "H",
            "p3d": {
              "x": 5.2705,
              "y": 1.0583,
              "z": -2.6578
            }
          },
          {
            "elSymbol": "C",
            "p3d": {
              "x": 2.3998,
              "y": -2.8526,
              "z": -2.5007
            }
          },
          {
            "elSymbol": "H",
            "p3d": {
              "x": 0.724,
              "y": -1.9306,
              "z": -1.4908
            }
          },
          {
            "elSymbol": "H",
            "p3d": {
              "x": 1.9155,
              "y": -3.8304,
              "z": -2.576
            }
          },
          {
            "elSymbol": "C",
            "p3d": {
              "x": 3.684,
              "y": -2.6697,
              "z": -3.0355
            }
          },
          {
            "elSymbol": "H",
            "p3d": {
              "x": 4.2028,
              "y": -3.5195,
              "z": -3.4955
            }
          },
          {
            "elSymbol": "C",
            "p3d": {
              "x": 4.3092,
              "y": -1.4197,
              "z": -2.9387
            }
          }
        ],
        "bonds": [
          {
            "atomIds": [
              0,
              1
            ],
            "bo": "SINGLE"
          },
          {
            "atomIds": [
              1,
              2
            ],
            "bo": "SINGLE"
          },
          {
            "atomIds": [
              1,
              5
            ],
            "bo": "DOUBLE"
          },
          {
            "atomIds": [
              2,
              4
            ],
            "bo": "DOUBLE"
          },
          {
            "atomIds": [
              4,
              6
            ],
            "bo": "SINGLE"
          },
          {
            "atomIds": [
              3,
              5
            ],
            "bo": "SINGLE"
          },
          {
            "atomIds": [
              3,
              6
            ],
            "bo": "DOUBLE"
          },
          {
            "atomIds": [
              7,
              4
            ],
            "bo": "SINGLE"
          },
          {
            "atomIds": [
              6,
              16
            ],
            "bo": "SINGLE"
          },
          {
            "atomIds": [
              7,
              11
            ],
            "bo": "DOUBLE"
          },
          {
            "atomIds": [
              11,
              14
            ],
            "bo": "SINGLE"
          },
          {
            "atomIds": [
              14,
              16
            ],
            "bo": "DOUBLE"
          },
          {
            "atomIds": [
              3,
              10
            ],
            "bo": "SINGLE"
          },
          {
            "atomIds": [
              5,
              8
            ],
            "bo": "SINGLE"
          },
          {
            "atomIds": [
              7,
              12
            ],
            "bo": "SINGLE"
          },
          {
            "atomIds": [
              9,
              16
            ],
            "bo": "SINGLE"
          },
          {
            "atomIds": [
              14,
              15
            ],
            "bo": "SINGLE"
          },
          {
            "atomIds": [
              11,
              13
            ],
            "bo": "SINGLE"
          }
        ]
      },
      "vertexId": 379931,
      "buildingBlockId": 38,
      "buildingBlockType": "FRAGMENT",
      "isRCV": false,
      "properties": {
        "ATTACHMENT_POINTS": "3#SubArM:1:SINGLE:0.2839%0.3907%-0.6271 "
      },
      "uniquefyingPropertyKeys": [],
      "allowedMutationTypes": [
        "DELETE",
        "EXTEND",
        "CHANGEBRANCH",
        "CHANGELINK",
        "ADDLINK",
        "DELETELINK",
        "DELETECHAIN"
      ],
      "vertexType": "MolecularFragment"
    },
    {
      "lstAPs": [
        {
          "id": 598122,
          "atomPositionNumber": 1,
          "atomPositionNumberInMol": 30,
          "apClass": {
            "rule": "SubRS",
            "subClass": 1,
            "bndTyp": "SINGLE"
          },
          "dirVec": {
            "x": 0.2985,
            "y": 0.384,
            "z": -0.6258
          }
        }
      ],
      "lstSymAPs": [],
      "mol": {
        "atoms": [
          {
            "elSymbol": "C",
            "p3d": {
              "x": -1.0244,
              "y": -0.2225,
              "z": 1.3991
            }
          },
          {
            "elSymbol": "C",
            "p3d": {
              "x": 0.3973,
              "y": -0.042,
              "z": 0.8195
            }
          },
          {
            "elSymbol": "H",
            "p3d": {
              "x": -1.5635,
              "y": -0.9908,
              "z": 0.8263
            }
          },
          {
            "elSymbol": "H",
            "p3d": {
              "x": -0.941,
              "y": -0.535,
              "z": 2.446
            }
          },
          {
            "elSymbol": "H",
            "p3d": {
              "x": -1.5586,
              "y": 0.7335,
              "z": 1.3382
            }
          },
          {
            "elSymbol": "H",
            "p3d": {
              "x": 0.9335,
              "y": 0.7221,
              "z": 1.4011
            }
          },
          {
            "elSymbol": "H",
            "p3d": {
              "x": 0.927,
              "y": -1.0102,
              "z": 0.9001
            }
          }
        ],
        "bonds": [
          {
            "atomIds": [
              0,
              1
            ],
            "bo": "SINGLE"
          },
          {
            "atomIds": [
              0,
              2
            ],
            "bo": "SINGLE"
          },
          {
            "atomIds": [
              0,
              3
            ],
            "bo": "SINGLE"
          },
          {
            "atomIds": [
              0,
              4
            ],
            "bo": "SINGLE"
          },
          {
            "atomIds": [
              1,
              5
            ],
            "bo": "SINGLE"
          },
          {
            "atomIds": [
              1,
              6
            ],
            "bo": "SINGLE"
          }
        ]
      },
      "vertexId": 523842,
      "buildingBlockId": 31,
      "buildingBlockType": "FRAGMENT",
      "isRCV": false,
      "properties": {
        "ATTACHMENT_POINTS": "2#SubRS:1:SINGLE:0.2985%0.3840%-0.6258 "
      },
      "uniquefyingPropertyKeys": [],
      "allowedMutationTypes": [
        "DELETE",
        "EXTEND",
        "CHANGEBRANCH",
        "CHANGELINK",
        "ADDLINK",
        "DELETELINK",
        "DELETECHAIN"
      ],
      "vertexType": "MolecularFragment"
    },
    {
      "lstAPs": [
        {
          "id": 598123,
          "atomPositionNumber": 1,
          "atomPositionNumberInMol": 37,
          "apClass": {
            "rule": "SubRS",
            "subClass": 1,
            "bndTyp": "SINGLE"
          },
          "dirVec": {
            "x": 0.2985,
            "y": 0.384,
            "z": -0.6258
          }
        }
      ],
      "lstSymAPs": [],
      "mol": {
        "atoms": [
          {
            "elSymbol": "C",
            "p3d": {
              "x": -1.0244,
              "y": -0.2225,
              "z": 1.3991
            }
          },
          {
            "elSymbol": "C",
            "p3d": {
              "x": 0.3973,
              "y": -0.042,
              "z": 0.8195
            }
          },
          {
            "elSymbol": "H",
            "p3d": {
              "x": -1.5635,
              "y": -0.9908,
              "z": 0.8263
            }
          },
          {
            "elSymbol": "H",
            "p3d": {
              "x": -0.941,
              "y": -0.535,
              "z": 2.446
            }
          },
          {
            "elSymbol": "H",
            "p3d": {
              "x": -1.5586,
              "y": 0.7335,
              "z": 1.3382
            }
          },
          {
            "elSymbol": "H",
            "p3d": {
              "x": 0.9335,
              "y": 0.7221,
              "z": 1.4011
            }
          },
          {
            "elSymbol": "H",
            "p3d": {
              "x": 0.927,
              "y": -1.0102,
              "z": 0.9001
            }
          }
        ],
        "bonds": [
          {
            "atomIds": [
              0,
              1
            ],
            "bo": "SINGLE"
          },
          {
            "atomIds": [
              0,
              2
            ],
            "bo": "SINGLE"
          },
          {
            "atomIds": [
              0,
              3
            ],
            "bo": "SINGLE"
          },
          {
            "atomIds": [
              0,
              4
            ],
            "bo": "SINGLE"
          },
          {
            "atomIds": [
              1,
              5
            ],
            "bo": "SINGLE"
          },
          {
            "atomIds": [
              1,
              6
            ],
            "bo": "SINGLE"
          }
        ]
      },
      "vertexId": 523816,
      "buildingBlockId": 31,
      "buildingBlockType": "FRAGMENT",
      "isRCV": false,
      "properties": {
        "ATTACHMENT_POINTS": "2#SubRS:1:SINGLE:0.2985%0.3840%-0.6258 "
      },
      "uniquefyingPropertyKeys": [],
      "allowedMutationTypes": [
        "DELETE",
        "EXTEND",
        "CHANGEBRANCH",
        "CHANGELINK",
        "ADDLINK",
        "DELETELINK",
        "DELETECHAIN"
      ],
      "vertexType": "MolecularFragment"
    }
  ],
  "gEdges": [
    {
      "srcAPID": 598060,
      "trgAPID": 598063,
      "bondType": "SINGLE"
    },
    {
      "srcAPID": 598062,
      "trgAPID": 598067,
      "bondType": "SINGLE"
    },
    {
      "srcAPID": 598061,
      "trgAPID": 598068,
      "bondType": "SINGLE"
    },
    {
      "srcAPID": 598066,
      "trgAPID": 598069,
      "bondType": "SINGLE"
    },
    {
      "srcAPID": 598064,
      "trgAPID": 598070,
      "bondType": "SINGLE"
    },
    {
      "srcAPID": 598065,
      "trgAPID": 598073,
      "bondType": "SINGLE"
    },
    {
      "srcAPID": 598072,
      "trgAPID": 598122,
      "bondType": "SINGLE"
    },
    {
      "srcAPID": 598071,
      "trgAPID": 598123,
      "bondType": "SINGLE"
    }
  ],
  "gRings": [],
  "symVertices": [
    {
      "symIds": [
        380761,
        379931
      ]
    },
    {
      "symIds": [
        523842,
        523816
      ]
    }
  ]
}

> <SMILES>
[Pt](C#O)(SC([H])([H])[H])([P](C=1C([H])=C(C(=C2C1C(=C(C(=C2[H])[H])[H])[H])[H])[H])(N(C(C([H])([H])[H])([H])[H])C(C([H])([H])[H])([H])[H])C=3C([H])=C(C(=C4C3C(=C(C(=C4[H])[H])[H])[H])[H])[H])C#N

$$$$
