M00000705
  CDK     04222208533D

 45 49  0  0  0  0  0  0  0  0999 V2000
   -3.0205   -1.5111    1.1588 Pt  0  0  0  0  0  0  0  0  0  0  0  0
   -4.9362   -1.7602    1.4594 C   0  0  0  0  0  0  0  0  0  0  0  0
   -6.0515   -1.9068    1.6440 O   0  0  0  0  0  0  0  0  0  0  0  0
   -3.3100    0.3786    2.4434 S   0  0  0  0  0  0  0  0  0  0  0  0
   -3.3348    1.5811    1.0909 C   0  0  0  0  0  0  0  0  0  0  0  0
   -4.1239    2.3216    1.2721 H   0  0  0  0  0  0  0  0  0  0  0  0
   -3.5373    1.0928    0.1281 H   0  0  0  0  0  0  0  0  0  0  0  0
   -2.3758    2.1090    1.0178 H   0  0  0  0  0  0  0  0  0  0  0  0
   -0.7548   -1.2608    0.8893 P   0  0  0  0  0  0  0  0  0  0  0  0
   -0.2027    1.0119    2.5408 N   0  0  0  0  0  0  0  0  0  0  0  0
   -0.5896   -2.3584   -1.7469 N   0  0  0  0  0  0  0  0  0  0  0  0
    0.0618    0.2921    1.3712 C   0  0  0  0  0  0  0  0  0  0  0  0
    1.0572    0.9118    0.6192 C   0  0  0  0  0  0  0  0  0  0  0  0
    1.4591    2.0770    1.3607 C   0  0  0  0  0  0  0  0  0  0  0  0
    2.4127    3.0973    1.1443 C   0  0  0  0  0  0  0  0  0  0  0  0
    3.0230    3.0803    0.2440 H   0  0  0  0  0  0  0  0  0  0  0  0
    2.5454    4.0944    2.0866 C   0  0  0  0  0  0  0  0  0  0  0  0
    3.2724    4.8922    1.9454 H   0  0  0  0  0  0  0  0  0  0  0  0
    1.7421    4.1148    3.2658 C   0  0  0  0  0  0  0  0  0  0  0  0
    1.8901    4.9293    3.9758 H   0  0  0  0  0  0  0  0  0  0  0  0
    0.7998    3.1424    3.5178 C   0  0  0  0  0  0  0  0  0  0  0  0
    0.1831    3.1532    4.4113 H   0  0  0  0  0  0  0  0  0  0  0  0
    0.6580    2.1121    2.5554 C   0  0  0  0  0  0  0  0  0  0  0  0
    1.6105    0.4842   -0.6939 C   0  0  0  0  0  0  0  0  0  0  0  0
    1.6363    1.3644   -1.3827 H   0  0  0  0  0  0  0  0  0  0  0  0
    2.6808    0.1878   -0.5633 H   0  0  0  0  0  0  0  0  0  0  0  0
   -0.1338   -1.4229   -0.8127 C   0  0  0  0  0  0  0  0  0  0  0  0
    0.8737   -0.6271   -1.3540 C   0  0  0  0  0  0  0  0  0  0  0  0
    1.0748   -1.0882   -2.7005 C   0  0  0  0  0  0  0  0  0  0  0  0
    1.9394   -0.7050   -3.7514 C   0  0  0  0  0  0  0  0  0  0  0  0
    2.6423    0.1107   -3.5982 H   0  0  0  0  0  0  0  0  0  0  0  0
    1.8680   -1.3797   -4.9507 C   0  0  0  0  0  0  0  0  0  0  0  0
    2.5216   -1.1056   -5.7767 H   0  0  0  0  0  0  0  0  0  0  0  0
    0.9432   -2.4489   -5.1490 C   0  0  0  0  0  0  0  0  0  0  0  0
    0.9309   -2.9456   -6.1198 H   0  0  0  0  0  0  0  0  0  0  0  0
    0.0819   -2.8557   -4.1548 C   0  0  0  0  0  0  0  0  0  0  0  0
   -0.6264   -3.6665   -4.2983 H   0  0  0  0  0  0  0  0  0  0  0  0
    0.1485   -2.1680   -2.9171 C   0  0  0  0  0  0  0  0  0  0  0  0
   -1.3207   -3.0460   -1.6090 H   0  0  0  0  0  0  0  0  0  0  0  0
   -0.8975    0.7874    3.2409 H   0  0  0  0  0  0  0  0  0  0  0  0
   -0.0179   -2.6488    1.9091 C   0  0  0  0  0  0  0  0  0  0  0  0
   -0.2135   -2.5046    2.9811 H   0  0  0  0  0  0  0  0  0  0  0  0
   -0.4649   -3.6168    1.6208 H   0  0  0  0  0  0  0  0  0  0  0  0
    1.0692   -2.7274    1.7710 H   0  0  0  0  0  0  0  0  0  0  0  0
   -3.2140   -3.5725   -0.0861 Cl  0  0  0  0  0  0  0  0  0  0  0  0
  2  3  3  0  0  0  0
  1  2  1  0  0  0  0
  5  6  1  0  0  0  0
  5  7  1  0  0  0  0
  5  8  1  0  0  0  0
  4  5  1  0  0  0  0
  1  4  1  0  0  0  0
 10 12  1  0  0  0  0
 11 27  1  0  0  0  0
 12  9  1  0  0  0  0
 13 12  2  0  0  0  0
 14 13  1  0  0  0  0
 14 23  2  0  0  0  0
 15 14  1  0  0  0  0
 16 15  1  0  0  0  0
 17 15  2  0  0  0  0
 18 17  1  0  0  0  0
 19 17  1  0  0  0  0
 20 19  1  0  0  0  0
 21 19  2  0  0  0  0
 21 23  1  0  0  0  0
 22 21  1  0  0  0  0
 23 10  1  0  0  0  0
 24 13  1  0  0  0  0
 25 24  1  0  0  0  0
 26 24  1  0  0  0  0
 27  9  1  0  0  0  0
 27 28  2  0  0  0  0
 28 24  1  0  0  0  0
 29 28  1  0  0  0  0
 29 38  2  0  0  0  0
 30 29  1  0  0  0  0
 31 30  1  0  0  0  0
 32 30  2  0  0  0  0
 33 32  1  0  0  0  0
 34 32  1  0  0  0  0
 35 34  1  0  0  0  0
 36 34  2  0  0  0  0
 36 38  1  0  0  0  0
 37 36  1  0  0  0  0
 38 11  1  0  0  0  0
 39 11  1  0  0  0  0
 40 10  1  0  0  0  0
  1  9  1  0  0  0  0
 41 42  1  0  0  0  0
 41 43  1  0  0  0  0
 41 44  1  0  0  0  0
  9 41  1  0  0  0  0
  1 45  1  0  0  0  0
M  END
> <PM6_ENERGY>
79.075

> <UID>
AMNZTHZIIWWFJC-YPOUOSKYNA-L

> <FITNESS>
1.13994

> <GCODE>
1278

> <GraphENC>
1278 72_1_0,79_64_1,106_44_1,88_67_1,21248_31_1, 72_0_79_0_SINGLE_Xlig:0_Xlig:1,72_2_106_1_SINGLE_scaff:0_MPhosphine:1,72_1_88_0_SINGLE_Xlig:0_Xlig:1,106_0_21248_0_SINGLE_LPhosphineSubM:0_SubRS:1, 

> <GraphJson>
{
  "graphId": 1278,
  "gVertices": [
    {
      "lstAPs": [
        {
          "id": 29347,
          "atomPositionNumber": 0,
          "atomPositionNumberInMol": 0,
          "apClass": {
            "rule": "Xlig",
            "subClass": 0,
            "bndTyp": "SINGLE"
          },
          "dirVec": {
            "x": -2.3339,
            "y": -0.0087,
            "z": 0.8172
          }
        },
        {
          "id": 29348,
          "atomPositionNumber": 0,
          "atomPositionNumberInMol": 0,
          "apClass": {
            "rule": "Xlig",
            "subClass": 0,
            "bndTyp": "SINGLE"
          },
          "dirVec": {
            "x": 2.336,
            "y": -5.0E-4,
            "z": 0.829
          }
        },
        {
          "id": 29349,
          "atomPositionNumber": 0,
          "atomPositionNumberInMol": 0,
          "apClass": {
            "rule": "scaff",
            "subClass": 0,
            "bndTyp": "SINGLE"
          },
          "dirVec": {
            "x": -0.0095,
            "y": 0.0046,
            "z": -1.7113
          }
        }
      ],
      "lstSymAPs": [
        {
          "symIds": [
            0,
            1
          ]
        }
      ],
      "mol": {
        "atoms": [
          {
            "elSymbol": "Pt",
            "p3d": {
              "x": -0.0098,
              "y": 0.0049,
              "z": 0.6289
            }
          },
          {
            "elSymbol": "C",
            "p3d": {
              "x": -6.0E-4,
              "y": 0.0016,
              "z": 2.5609
            }
          },
          {
            "elSymbol": "O",
            "p3d": {
              "x": 0.0025,
              "y": -0.0041,
              "z": 3.6974
            }
          },
          {
            "elSymbol": "Du",
            "p3d": {
              "x": -0.007,
              "y": 1.0013,
              "z": 0.6372
            }
          },
          {
            "elSymbol": "Du",
            "p3d": {
              "x": -0.0014,
              "y": 0.9902,
              "z": 2.5698
            }
          }
        ],
        "bonds": [
          {
            "atomIds": [
              1,
              2
            ],
            "bo": "TRIPLE"
          },
          {
            "atomIds": [
              0,
              1
            ],
            "bo": "SINGLE"
          },
          {
            "atomIds": [
              3,
              0
            ],
            "bo": "SINGLE"
          },
          {
            "atomIds": [
              4,
              1
            ],
            "bo": "SINGLE"
          }
        ]
      },
      "vertexId": 72,
      "buildingBlockId": 0,
      "buildingBlockType": "SCAFFOLD",
      "isRCV": false,
      "properties": {
        "ATTACHMENT_POINTS": "1#Xlig:0:SINGLE:-2.3339%-0.0087%0.8172,Xlig:0:SINGLE:2.3360%-0.0005%0.8290,scaff:0:SINGLE:-0.0095%0.0046%-1.7113 "
      },
      "uniquefyingPropertyKeys": [],
      "allowedMutationTypes": [
        "DELETE",
        "EXTEND",
        "CHANGEBRANCH",
        "CHANGELINK",
        "ADDLINK",
        "DELETELINK",
        "DELETECHAIN"
      ],
      "vertexType": "MolecularFragment"
    },
    {
      "lstAPs": [
        {
          "id": 29350,
          "atomPositionNumber": 0,
          "atomPositionNumberInMol": 5,
          "apClass": {
            "rule": "Xlig",
            "subClass": 1,
            "bndTyp": "SINGLE"
          },
          "dirVec": {
            "x": -0.102,
            "y": 0.0185,
            "z": -1.0265
          }
        }
      ],
      "lstSymAPs": [],
      "mol": {
        "atoms": [
          {
            "elSymbol": "S",
            "p3d": {
              "x": -0.3267,
              "y": 2.3403,
              "z": -1.0022
            }
          },
          {
            "elSymbol": "C",
            "p3d": {
              "x": -0.626,
              "y": 2.4866,
              "z": 0.7805
            }
          },
          {
            "elSymbol": "H",
            "p3d": {
              "x": 0.1766,
              "y": 3.089,
              "z": 1.2414
            }
          },
          {
            "elSymbol": "H",
            "p3d": {
              "x": -0.651,
              "y": 1.5065,
              "z": 1.2643
            }
          },
          {
            "elSymbol": "H",
            "p3d": {
              "x": -1.5658,
              "y": 2.981,
              "z": 0.9515
            }
          }
        ],
        "bonds": [
          {
            "atomIds": [
              1,
              2
            ],
            "bo": "SINGLE"
          },
          {
            "atomIds": [
              1,
              3
            ],
            "bo": "SINGLE"
          },
          {
            "atomIds": [
              1,
              4
            ],
            "bo": "SINGLE"
          },
          {
            "atomIds": [
              0,
              1
            ],
            "bo": "SINGLE"
          }
        ]
      },
      "vertexId": 79,
      "buildingBlockId": 63,
      "buildingBlockType": "FRAGMENT",
      "isRCV": false,
      "properties": {
        "ATTACHMENT_POINTS": "1#Xlig:1:SINGLE:-0.1020%0.0185%-1.0265 "
      },
      "uniquefyingPropertyKeys": [],
      "allowedMutationTypes": [
        "DELETE",
        "EXTEND",
        "CHANGEBRANCH",
        "CHANGELINK",
        "ADDLINK",
        "DELETELINK",
        "DELETECHAIN"
      ],
      "vertexType": "MolecularFragment"
    },
    {
      "lstAPs": [
        {
          "id": 29351,
          "atomPositionNumber": 0,
          "atomPositionNumberInMol": 10,
          "apClass": {
            "rule": "LPhosphineSubM",
            "subClass": 0,
            "bndTyp": "SINGLE"
          },
          "dirVec": {
            "x": 9.6921,
            "y": 11.1939,
            "z": 8.6295
          }
        },
        {
          "id": 29352,
          "atomPositionNumber": 0,
          "atomPositionNumberInMol": 10,
          "apClass": {
            "rule": "MPhosphine",
            "subClass": 1,
            "bndTyp": "SINGLE"
          },
          "dirVec": {
            "x": 6.9761,
            "y": 12.58,
            "z": 7.2794
          }
        }
      ],
      "lstSymAPs": [],
      "mol": {
        "atoms": [
          {
            "elSymbol": "P",
            "p3d": {
              "x": 7.9602,
              "y": 10.8392,
              "z": 8.2268
            }
          },
          {
            "elSymbol": "N",
            "p3d": {
              "x": 8.5483,
              "y": 9.0407,
              "z": 6.1703
            }
          },
          {
            "elSymbol": "N",
            "p3d": {
              "x": 6.8549,
              "y": 11.2353,
              "z": 10.7656
            }
          },
          {
            "elSymbol": "C",
            "p3d": {
              "x": 7.892,
              "y": 9.2815,
              "z": 7.3648
            }
          },
          {
            "elSymbol": "C",
            "p3d": {
              "x": 7.2175,
              "y": 8.1492,
              "z": 7.7741
            }
          },
          {
            "elSymbol": "C",
            "p3d": {
              "x": 7.4688,
              "y": 7.1556,
              "z": 6.7782
            }
          },
          {
            "elSymbol": "C",
            "p3d": {
              "x": 7.0398,
              "y": 5.8455,
              "z": 6.598
            }
          },
          {
            "elSymbol": "H",
            "p3d": {
              "x": 6.3745,
              "y": 5.367,
              "z": 7.3292
            }
          },
          {
            "elSymbol": "C",
            "p3d": {
              "x": 7.4705,
              "y": 5.1358,
              "z": 5.5039
            }
          },
          {
            "elSymbol": "H",
            "p3d": {
              "x": 7.1596,
              "y": 4.1112,
              "z": 5.3392
            }
          },
          {
            "elSymbol": "C",
            "p3d": {
              "x": 8.3441,
              "y": 5.7392,
              "z": 4.5675
            }
          },
          {
            "elSymbol": "H",
            "p3d": {
              "x": 8.6908,
              "y": 5.1616,
              "z": 3.701
            }
          },
          {
            "elSymbol": "C",
            "p3d": {
              "x": 8.7529,
              "y": 7.0311,
              "z": 4.694
            }
          },
          {
            "elSymbol": "H",
            "p3d": {
              "x": 9.424,
              "y": 7.4893,
              "z": 3.9498
            }
          },
          {
            "elSymbol": "C",
            "p3d": {
              "x": 8.3101,
              "y": 7.7617,
              "z": 5.8077
            }
          },
          {
            "elSymbol": "C",
            "p3d": {
              "x": 6.3606,
              "y": 8.0074,
              "z": 9.0072
            }
          },
          {
            "elSymbol": "H",
            "p3d": {
              "x": 5.3323,
              "y": 7.8023,
              "z": 8.7023
            }
          },
          {
            "elSymbol": "H",
            "p3d": {
              "x": 6.7225,
              "y": 7.1449,
              "z": 9.551
            }
          },
          {
            "elSymbol": "C",
            "p3d": {
              "x": 7.0777,
              "y": 10.3774,
              "z": 9.7037
            }
          },
          {
            "elSymbol": "C",
            "p3d": {
              "x": 6.3769,
              "y": 9.2031,
              "z": 9.8991
            }
          },
          {
            "elSymbol": "C",
            "p3d": {
              "x": 5.6859,
              "y": 9.3381,
              "z": 11.1369
            }
          },
          {
            "elSymbol": "C",
            "p3d": {
              "x": 4.7979,
              "y": 8.509,
              "z": 11.8479
            }
          },
          {
            "elSymbol": "H",
            "p3d": {
              "x": 4.5514,
              "y": 7.5178,
              "z": 11.4749
            }
          },
          {
            "elSymbol": "C",
            "p3d": {
              "x": 4.2496,
              "y": 8.9952,
              "z": 13.0233
            }
          },
          {
            "elSymbol": "H",
            "p3d": {
              "x": 3.5227,
              "y": 8.3741,
              "z": 13.5615
            }
          },
          {
            "elSymbol": "C",
            "p3d": {
              "x": 4.59,
              "y": 10.2669,
              "z": 13.5215
            }
          },
          {
            "elSymbol": "H",
            "p3d": {
              "x": 4.1412,
              "y": 10.5932,
              "z": 14.4483
            }
          },
          {
            "elSymbol": "C",
            "p3d": {
              "x": 5.4622,
              "y": 11.0858,
              "z": 12.854
            }
          },
          {
            "elSymbol": "H",
            "p3d": {
              "x": 5.7481,
              "y": 12.0539,
              "z": 13.2582
            }
          },
          {
            "elSymbol": "C",
            "p3d": {
              "x": 6.0068,
              "y": 10.6045,
              "z": 11.6592
            }
          },
          {
            "elSymbol": "H",
            "p3d": {
              "x": 7.1991,
              "y": 12.1768,
              "z": 10.8969
            }
          },
          {
            "elSymbol": "H",
            "p3d": {
              "x": 9.0993,
              "y": 9.7292,
              "z": 5.6737
            }
          }
        ],
        "bonds": [
          {
            "atomIds": [
              1,
              3
            ],
            "bo": "SINGLE"
          },
          {
            "atomIds": [
              2,
              18
            ],
            "bo": "SINGLE"
          },
          {
            "atomIds": [
              3,
              0
            ],
            "bo": "SINGLE"
          },
          {
            "atomIds": [
              4,
              3
            ],
            "bo": "DOUBLE"
          },
          {
            "atomIds": [
              5,
              4
            ],
            "bo": "SINGLE"
          },
          {
            "atomIds": [
              5,
              14
            ],
            "bo": "DOUBLE"
          },
          {
            "atomIds": [
              6,
              5
            ],
            "bo": "SINGLE"
          },
          {
            "atomIds": [
              7,
              6
            ],
            "bo": "SINGLE"
          },
          {
            "atomIds": [
              8,
              6
            ],
            "bo": "DOUBLE"
          },
          {
            "atomIds": [
              9,
              8
            ],
            "bo": "SINGLE"
          },
          {
            "atomIds": [
              10,
              8
            ],
            "bo": "SINGLE"
          },
          {
            "atomIds": [
              11,
              10
            ],
            "bo": "SINGLE"
          },
          {
            "atomIds": [
              12,
              10
            ],
            "bo": "DOUBLE"
          },
          {
            "atomIds": [
              12,
              14
            ],
            "bo": "SINGLE"
          },
          {
            "atomIds": [
              13,
              12
            ],
            "bo": "SINGLE"
          },
          {
            "atomIds": [
              14,
              1
            ],
            "bo": "SINGLE"
          },
          {
            "atomIds": [
              15,
              4
            ],
            "bo": "SINGLE"
          },
          {
            "atomIds": [
              16,
              15
            ],
            "bo": "SINGLE"
          },
          {
            "atomIds": [
              17,
              15
            ],
            "bo": "SINGLE"
          },
          {
            "atomIds": [
              18,
              0
            ],
            "bo": "SINGLE"
          },
          {
            "atomIds": [
              18,
              19
            ],
            "bo": "DOUBLE"
          },
          {
            "atomIds": [
              19,
              15
            ],
            "bo": "SINGLE"
          },
          {
            "atomIds": [
              20,
              19
            ],
            "bo": "SINGLE"
          },
          {
            "atomIds": [
              20,
              29
            ],
            "bo": "DOUBLE"
          },
          {
            "atomIds": [
              21,
              20
            ],
            "bo": "SINGLE"
          },
          {
            "atomIds": [
              22,
              21
            ],
            "bo": "SINGLE"
          },
          {
            "atomIds": [
              23,
              21
            ],
            "bo": "DOUBLE"
          },
          {
            "atomIds": [
              24,
              23
            ],
            "bo": "SINGLE"
          },
          {
            "atomIds": [
              25,
              23
            ],
            "bo": "SINGLE"
          },
          {
            "atomIds": [
              26,
              25
            ],
            "bo": "SINGLE"
          },
          {
            "atomIds": [
              27,
              25
            ],
            "bo": "DOUBLE"
          },
          {
            "atomIds": [
              27,
              29
            ],
            "bo": "SINGLE"
          },
          {
            "atomIds": [
              28,
              27
            ],
            "bo": "SINGLE"
          },
          {
            "atomIds": [
              29,
              2
            ],
            "bo": "SINGLE"
          },
          {
            "atomIds": [
              30,
              2
            ],
            "bo": "SINGLE"
          },
          {
            "atomIds": [
              31,
              1
            ],
            "bo": "SINGLE"
          }
        ]
      },
      "vertexId": 106,
      "buildingBlockId": 43,
      "buildingBlockType": "FRAGMENT",
      "isRCV": false,
      "properties": {
        "ATTACHMENT_POINTS": "1#LPhosphineSubM:0:SINGLE:9.6921%11.1939%8.6295,MPhosphine:1:SINGLE:6.9761%12.5800%7.2794 "
      },
      "uniquefyingPropertyKeys": [],
      "allowedMutationTypes": [
        "DELETE",
        "EXTEND",
        "CHANGEBRANCH",
        "CHANGELINK",
        "ADDLINK",
        "DELETELINK",
        "DELETECHAIN"
      ],
      "vertexType": "MolecularFragment"
    },
    {
      "lstAPs": [
        {
          "id": 29353,
          "atomPositionNumber": 0,
          "atomPositionNumberInMol": 46,
          "apClass": {
            "rule": "Xlig",
            "subClass": 1,
            "bndTyp": "SINGLE"
          },
          "dirVec": {
            "x": -0.0053,
            "y": -0.0027,
            "z": 0.63
          }
        }
      ],
      "lstSymAPs": [],
      "mol": {
        "atoms": [
          {
            "elSymbol": "Cl",
            "p3d": {
              "x": 2.3243,
              "y": -0.0063,
              "z": 0.8189
            }
          }
        ],
        "bonds": []
      },
      "vertexId": 88,
      "buildingBlockId": 66,
      "buildingBlockType": "FRAGMENT",
      "isRCV": false,
      "properties": {
        "ATTACHMENT_POINTS": "1#Xlig:1:SINGLE:-0.0053%-0.0027%0.6300 "
      },
      "uniquefyingPropertyKeys": [],
      "allowedMutationTypes": [
        "DELETE",
        "EXTEND",
        "CHANGEBRANCH",
        "CHANGELINK",
        "ADDLINK",
        "DELETELINK",
        "DELETECHAIN"
      ],
      "vertexType": "MolecularFragment"
    },
    {
      "lstAPs": [
        {
          "id": 29370,
          "atomPositionNumber": 0,
          "atomPositionNumberInMol": 42,
          "apClass": {
            "rule": "SubRS",
            "subClass": 1,
            "bndTyp": "SINGLE"
          },
          "dirVec": {
            "x": 0.2865,
            "y": 0.3959,
            "z": -0.6387
          }
        }
      ],
      "lstSymAPs": [],
      "mol": {
        "atoms": [
          {
            "elSymbol": "C",
            "p3d": {
              "x": 0.3969,
              "y": -0.0496,
              "z": 0.8235
            }
          },
          {
            "elSymbol": "H",
            "p3d": {
              "x": -0.6146,
              "y": -0.163,
              "z": 1.2402
            }
          },
          {
            "elSymbol": "H",
            "p3d": {
              "x": 0.9335,
              "y": -0.9979,
              "z": 0.8998
            }
          },
          {
            "elSymbol": "H",
            "p3d": {
              "x": 0.9252,
              "y": 0.7237,
              "z": 1.3995
            }
          }
        ],
        "bonds": [
          {
            "atomIds": [
              0,
              1
            ],
            "bo": "SINGLE"
          },
          {
            "atomIds": [
              0,
              2
            ],
            "bo": "SINGLE"
          },
          {
            "atomIds": [
              0,
              3
            ],
            "bo": "SINGLE"
          }
        ]
      },
      "vertexId": 21248,
      "buildingBlockId": 30,
      "buildingBlockType": "FRAGMENT",
      "isRCV": false,
      "properties": {
        "ATTACHMENT_POINTS": "1#SubRS:1:SINGLE:0.2865%0.3959%-0.6387 "
      },
      "uniquefyingPropertyKeys": [],
      "allowedMutationTypes": [
        "DELETE",
        "EXTEND",
        "CHANGEBRANCH",
        "CHANGELINK",
        "ADDLINK",
        "DELETELINK",
        "DELETECHAIN"
      ],
      "vertexType": "MolecularFragment"
    }
  ],
  "gEdges": [
    {
      "srcAPID": 29347,
      "trgAPID": 29350,
      "bondType": "SINGLE"
    },
    {
      "srcAPID": 29349,
      "trgAPID": 29352,
      "bondType": "SINGLE"
    },
    {
      "srcAPID": 29348,
      "trgAPID": 29353,
      "bondType": "SINGLE"
    },
    {
      "srcAPID": 29351,
      "trgAPID": 29370,
      "bondType": "SINGLE"
    }
  ],
  "gRings": [],
  "symVertices": []
}

> <SMILES>
[Pt](C#O)(SC([H])([H])[H])([P]1(C=2N(C3=C(C2C([H])([H])C4=C1N(C5=C4C([H])=C([H])C([H])=C5[H])[H])C([H])=C([H])C([H])=C3[H])[H])C([H])([H])[H])Cl

$$$$
