M00015415
  CDK     04222214103D

 48 49  0  0  0  0  0  0  0  0999 V2000
   -2.7868   -0.4240   -0.1525 Pt  0  0  0  0  0  0  0  0  0  0  0  0
   -4.7402   -0.2380   -0.2289 C   0  0  0  0  0  0  0  0  0  0  0  0
   -5.8737   -0.1279   -0.2724 O   0  0  0  0  0  0  0  0  0  0  0  0
   -2.9121    1.8355    0.5017 Cl  0  0  0  0  0  0  0  0  0  0  0  0
   -0.4902   -0.5893   -0.0383 P   0  0  0  0  0  0  0  0  0  0  0  0
    0.1479    0.7123   -0.9799 N   0  0  0  0  0  0  0  0  0  0  0  0
    1.5701    1.1252   -0.9642 C   0  0  0  0  0  0  0  0  0  0  0  0
    2.1708    0.4846   -0.2815 H   0  0  0  0  0  0  0  0  0  0  0  0
    1.6358    2.1666   -0.5656 H   0  0  0  0  0  0  0  0  0  0  0  0
    2.1584    1.0804   -2.3881 C   0  0  0  0  0  0  0  0  0  0  0  0
    3.1997    1.4502   -2.3748 H   0  0  0  0  0  0  0  0  0  0  0  0
    2.2045    0.0340   -2.7454 H   0  0  0  0  0  0  0  0  0  0  0  0
    1.3074    1.9206   -3.3504 C   0  0  0  0  0  0  0  0  0  0  0  0
    1.7096    1.8422   -4.3778 H   0  0  0  0  0  0  0  0  0  0  0  0
    1.3751    2.9913   -3.0756 H   0  0  0  0  0  0  0  0  0  0  0  0
   -0.1587    1.4692   -3.3267 C   0  0  0  0  0  0  0  0  0  0  0  0
   -0.7708    2.1250   -3.9742 H   0  0  0  0  0  0  0  0  0  0  0  0
   -0.2440    0.4511   -3.7537 H   0  0  0  0  0  0  0  0  0  0  0  0
   -0.7324    1.4851   -1.8959 C   0  0  0  0  0  0  0  0  0  0  0  0
   -0.8122    2.5345   -1.5228 H   0  0  0  0  0  0  0  0  0  0  0  0
   -1.7716    1.0701   -1.9071 H   0  0  0  0  0  0  0  0  0  0  0  0
    0.0670   -2.3599   -2.1196 C   0  0  0  0  0  0  0  0  0  0  0  0
    0.4294   -2.1437   -0.6575 C   0  0  0  0  0  0  0  0  0  0  0  0
    0.0779   -3.3360    0.2185 C   0  0  0  0  0  0  0  0  0  0  0  0
    0.6369   -4.2255   -0.1071 H   0  0  0  0  0  0  0  0  0  0  0  0
   -0.9855   -3.6208    0.1574 H   0  0  0  0  0  0  0  0  0  0  0  0
    0.3177   -3.1851    1.2789 H   0  0  0  0  0  0  0  0  0  0  0  0
    0.3084   -1.4992   -2.7594 H   0  0  0  0  0  0  0  0  0  0  0  0
    0.6229   -3.2172   -2.5268 H   0  0  0  0  0  0  0  0  0  0  0  0
   -0.9972   -2.6045   -2.2718 H   0  0  0  0  0  0  0  0  0  0  0  0
    1.5278   -1.9396   -0.5792 H   0  0  0  0  0  0  0  0  0  0  0  0
   -0.0568   -0.4422    1.6249 N   0  0  0  0  0  0  0  0  0  0  0  0
    1.3367   -0.4300    2.1304 C   0  0  0  0  0  0  0  0  0  0  0  0
    2.0693   -0.5823    1.3076 H   0  0  0  0  0  0  0  0  0  0  0  0
    1.4634   -1.2805    2.8416 H   0  0  0  0  0  0  0  0  0  0  0  0
    1.6277    0.9013    2.8528 C   0  0  0  0  0  0  0  0  0  0  0  0
    2.6443    0.8807    3.2844 H   0  0  0  0  0  0  0  0  0  0  0  0
    1.6125    1.7337    2.1220 H   0  0  0  0  0  0  0  0  0  0  0  0
    0.5883    1.1708    3.9512 C   0  0  0  0  0  0  0  0  0  0  0  0
    0.7728    2.1628    4.4055 H   0  0  0  0  0  0  0  0  0  0  0  0
    0.7032    0.4330    4.7683 H   0  0  0  0  0  0  0  0  0  0  0  0
   -0.8398    1.1135    3.3924 C   0  0  0  0  0  0  0  0  0  0  0  0
   -1.5788    1.2483    4.2031 H   0  0  0  0  0  0  0  0  0  0  0  0
   -1.0089    1.9540    2.6861 H   0  0  0  0  0  0  0  0  0  0  0  0
   -1.0952   -0.2203    2.6674 C   0  0  0  0  0  0  0  0  0  0  0  0
   -1.0459   -1.0661    3.3933 H   0  0  0  0  0  0  0  0  0  0  0  0
   -2.1250   -0.2305    2.2295 H   0  0  0  0  0  0  0  0  0  0  0  0
   -3.2596   -2.6132   -0.8199 Cl  0  0  0  0  0  0  0  0  0  0  0  0
  2  3  3  0  0  0  0
  1  2  1  0  0  0  0
  1  4  1  0  0  0  0
  1  5  1  0  0  0  0
  7  6  1  0  0  0  0
  8  7  1  0  0  0  0
  9  7  1  0  0  0  0
 10  7  1  0  0  0  0
 11 10  1  0  0  0  0
 12 10  1  0  0  0  0
 13 10  1  0  0  0  0
 14 13  1  0  0  0  0
 15 13  1  0  0  0  0
 16 13  1  0  0  0  0
 17 16  1  0  0  0  0
 18 16  1  0  0  0  0
 19  6  1  0  0  0  0
 20 19  1  0  0  0  0
 21 19  1  0  0  0  0
 16 19  1  0  0  0  0
  5  6  1  0  0  0  0
 22 23  1  0  0  0  0
 23 24  1  0  0  0  0
 24 25  1  0  0  0  0
 24 26  1  0  0  0  0
 24 27  1  0  0  0  0
 22 28  1  0  0  0  0
 22 29  1  0  0  0  0
 22 30  1  0  0  0  0
 23 31  1  0  0  0  0
  5 23  1  0  0  0  0
 33 32  1  0  0  0  0
 34 33  1  0  0  0  0
 35 33  1  0  0  0  0
 36 33  1  0  0  0  0
 37 36  1  0  0  0  0
 38 36  1  0  0  0  0
 39 36  1  0  0  0  0
 40 39  1  0  0  0  0
 41 39  1  0  0  0  0
 42 39  1  0  0  0  0
 43 42  1  0  0  0  0
 44 42  1  0  0  0  0
 45 32  1  0  0  0  0
 46 45  1  0  0  0  0
 47 45  1  0  0  0  0
 42 45  1  0  0  0  0
  5 32  1  0  0  0  0
  1 48  1  0  0  0  0
M  END
> <PM6_ENERGY>
-472.439

> <UID>
CNTYZZICUUKXPH-OFVDQKBMNA-L

> <FITNESS>
1.13967

> <GCODE>
16650

> <GraphENC>
16650 72_1_0,82_67_1,100_3_1,88_67_1,342805_8_1,342645_33_1,342635_8_1, 72_0_82_0_SINGLE_Xlig:0_Xlig:1,72_2_100_3_SINGLE_scaff:0_MBisAminoPhosphine:1,72_1_88_0_SINGLE_Xlig:0_Xlig:1,100_1_342805_0_SINGLE_LBisAminoPhosphineN:0_LAminoPhosphineCycloN:1,100_2_342645_0_SINGLE_LBisAminoPhosphineSubR:0_SubRM:1,100_0_342635_0_SINGLE_LBisAminoPhosphineN:0_LAminoPhosphineCycloN:1, SymmetricSet [symIds=[342805, 342635]] 

> <GraphJson>
{
  "graphId": 16650,
  "gVertices": [
    {
      "lstAPs": [
        {
          "id": 446419,
          "atomPositionNumber": 0,
          "atomPositionNumberInMol": 0,
          "apClass": {
            "rule": "Xlig",
            "subClass": 0,
            "bndTyp": "SINGLE"
          },
          "dirVec": {
            "x": -2.3339,
            "y": -0.0087,
            "z": 0.8172
          }
        },
        {
          "id": 446420,
          "atomPositionNumber": 0,
          "atomPositionNumberInMol": 0,
          "apClass": {
            "rule": "Xlig",
            "subClass": 0,
            "bndTyp": "SINGLE"
          },
          "dirVec": {
            "x": 2.336,
            "y": -5.0E-4,
            "z": 0.829
          }
        },
        {
          "id": 446421,
          "atomPositionNumber": 0,
          "atomPositionNumberInMol": 0,
          "apClass": {
            "rule": "scaff",
            "subClass": 0,
            "bndTyp": "SINGLE"
          },
          "dirVec": {
            "x": -0.0095,
            "y": 0.0046,
            "z": -1.7113
          }
        }
      ],
      "lstSymAPs": [
        {
          "symIds": [
            0,
            1
          ]
        }
      ],
      "mol": {
        "atoms": [
          {
            "elSymbol": "Pt",
            "p3d": {
              "x": -0.0098,
              "y": 0.0049,
              "z": 0.6289
            }
          },
          {
            "elSymbol": "C",
            "p3d": {
              "x": -6.0E-4,
              "y": 0.0016,
              "z": 2.5609
            }
          },
          {
            "elSymbol": "O",
            "p3d": {
              "x": 0.0025,
              "y": -0.0041,
              "z": 3.6974
            }
          },
          {
            "elSymbol": "Du",
            "p3d": {
              "x": -0.007,
              "y": 1.0013,
              "z": 0.6372
            }
          },
          {
            "elSymbol": "Du",
            "p3d": {
              "x": -0.0014,
              "y": 0.9902,
              "z": 2.5698
            }
          }
        ],
        "bonds": [
          {
            "atomIds": [
              1,
              2
            ],
            "bo": "TRIPLE"
          },
          {
            "atomIds": [
              0,
              1
            ],
            "bo": "SINGLE"
          },
          {
            "atomIds": [
              3,
              0
            ],
            "bo": "SINGLE"
          },
          {
            "atomIds": [
              4,
              1
            ],
            "bo": "SINGLE"
          }
        ]
      },
      "vertexId": 72,
      "buildingBlockId": 0,
      "buildingBlockType": "SCAFFOLD",
      "isRCV": false,
      "properties": {
        "ATTACHMENT_POINTS": "1#Xlig:0:SINGLE:-2.3339%-0.0087%0.8172,Xlig:0:SINGLE:2.3360%-0.0005%0.8290,scaff:0:SINGLE:-0.0095%0.0046%-1.7113 "
      },
      "uniquefyingPropertyKeys": [],
      "allowedMutationTypes": [
        "DELETE",
        "EXTEND",
        "CHANGEBRANCH",
        "CHANGELINK",
        "ADDLINK",
        "DELETELINK",
        "DELETECHAIN"
      ],
      "vertexType": "MolecularFragment"
    },
    {
      "lstAPs": [
        {
          "id": 446422,
          "atomPositionNumber": 0,
          "atomPositionNumberInMol": 5,
          "apClass": {
            "rule": "Xlig",
            "subClass": 1,
            "bndTyp": "SINGLE"
          },
          "dirVec": {
            "x": -0.0053,
            "y": -0.0027,
            "z": 0.63
          }
        }
      ],
      "lstSymAPs": [],
      "mol": {
        "atoms": [
          {
            "elSymbol": "Cl",
            "p3d": {
              "x": 2.3243,
              "y": -0.0063,
              "z": 0.8189
            }
          }
        ],
        "bonds": []
      },
      "vertexId": 82,
      "buildingBlockId": 66,
      "buildingBlockType": "FRAGMENT",
      "isRCV": false,
      "properties": {
        "ATTACHMENT_POINTS": "1#Xlig:1:SINGLE:-0.0053%-0.0027%0.6300 "
      },
      "uniquefyingPropertyKeys": [],
      "allowedMutationTypes": [
        "DELETE",
        "EXTEND",
        "CHANGEBRANCH",
        "CHANGELINK",
        "ADDLINK",
        "DELETELINK",
        "DELETECHAIN"
      ],
      "vertexType": "MolecularFragment"
    },
    {
      "lstAPs": [
        {
          "id": 446423,
          "atomPositionNumber": 0,
          "atomPositionNumberInMol": 6,
          "apClass": {
            "rule": "LBisAminoPhosphineN",
            "subClass": 0,
            "bndTyp": "SINGLE"
          },
          "dirVec": {
            "x": -1.9272,
            "y": -0.2351,
            "z": 5.6045
          }
        },
        {
          "id": 446424,
          "atomPositionNumber": 0,
          "atomPositionNumberInMol": 6,
          "apClass": {
            "rule": "LBisAminoPhosphineN",
            "subClass": 0,
            "bndTyp": "SINGLE"
          },
          "dirVec": {
            "x": -1.4136,
            "y": -2.2231,
            "z": 3.8983
          }
        },
        {
          "id": 446425,
          "atomPositionNumber": 0,
          "atomPositionNumberInMol": 6,
          "apClass": {
            "rule": "LBisAminoPhosphineSubR",
            "subClass": 0,
            "bndTyp": "SINGLE"
          },
          "dirVec": {
            "x": -3.1852,
            "y": -0.3594,
            "z": 3.1924
          }
        },
        {
          "id": 446426,
          "atomPositionNumber": 0,
          "atomPositionNumberInMol": 6,
          "apClass": {
            "rule": "MBisAminoPhosphine",
            "subClass": 1,
            "bndTyp": "SINGLE"
          },
          "dirVec": {
            "x": 0.1796,
            "y": 0.6567,
            "z": 3.3484
          }
        }
      ],
      "lstSymAPs": [
        {
          "symIds": [
            0,
            1
          ]
        }
      ],
      "mol": {
        "atoms": [
          {
            "elSymbol": "P",
            "p3d": {
              "x": -1.6038,
              "y": -0.5663,
              "z": 4.0324
            }
          }
        ],
        "bonds": []
      },
      "vertexId": 100,
      "buildingBlockId": 2,
      "buildingBlockType": "FRAGMENT",
      "isRCV": false,
      "properties": {
        "ATTACHMENT_POINTS": "1#LBisAminoPhosphineN:0:SINGLE:-1.9272%-0.2351%5.6045,LBisAminoPhosphineN:0:SINGLE:-1.4136%-2.2231%3.8983,LBisAminoPhosphineSubR:0:SINGLE:-3.1852%-0.3594%3.1924,MBisAminoPhosphine:1:SINGLE:0.1796%0.6567%3.3484 "
      },
      "uniquefyingPropertyKeys": [],
      "allowedMutationTypes": [
        "DELETE",
        "EXTEND",
        "CHANGEBRANCH",
        "CHANGELINK",
        "ADDLINK",
        "DELETELINK",
        "DELETECHAIN"
      ],
      "vertexType": "MolecularFragment"
    },
    {
      "lstAPs": [
        {
          "id": 446427,
          "atomPositionNumber": 0,
          "atomPositionNumberInMol": 49,
          "apClass": {
            "rule": "Xlig",
            "subClass": 1,
            "bndTyp": "SINGLE"
          },
          "dirVec": {
            "x": -0.0053,
            "y": -0.0027,
            "z": 0.63
          }
        }
      ],
      "lstSymAPs": [],
      "mol": {
        "atoms": [
          {
            "elSymbol": "Cl",
            "p3d": {
              "x": 2.3243,
              "y": -0.0063,
              "z": 0.8189
            }
          }
        ],
        "bonds": []
      },
      "vertexId": 88,
      "buildingBlockId": 66,
      "buildingBlockType": "FRAGMENT",
      "isRCV": false,
      "properties": {
        "ATTACHMENT_POINTS": "1#Xlig:1:SINGLE:-0.0053%-0.0027%0.6300 "
      },
      "uniquefyingPropertyKeys": [],
      "allowedMutationTypes": [
        "DELETE",
        "EXTEND",
        "CHANGEBRANCH",
        "CHANGELINK",
        "ADDLINK",
        "DELETELINK",
        "DELETECHAIN"
      ],
      "vertexType": "MolecularFragment"
    },
    {
      "lstAPs": [
        {
          "id": 446464,
          "atomPositionNumber": 0,
          "atomPositionNumberInMol": 7,
          "apClass": {
            "rule": "LAminoPhosphineCycloN",
            "subClass": 1,
            "bndTyp": "SINGLE"
          },
          "dirVec": {
            "x": 4.555,
            "y": 2.7674,
            "z": 17.4338
          }
        }
      ],
      "lstSymAPs": [],
      "mol": {
        "atoms": [
          {
            "elSymbol": "N",
            "p3d": {
              "x": 2.9381,
              "y": 2.7068,
              "z": 17.7892
            }
          },
          {
            "elSymbol": "C",
            "p3d": {
              "x": 2.2822,
              "y": 1.6786,
              "z": 18.5885
            }
          },
          {
            "elSymbol": "H",
            "p3d": {
              "x": 3.041,
              "y": 1.1815,
              "z": 19.2164
            }
          },
          {
            "elSymbol": "H",
            "p3d": {
              "x": 1.8455,
              "y": 0.9233,
              "z": 17.9289
            }
          },
          {
            "elSymbol": "C",
            "p3d": {
              "x": 1.221,
              "y": 2.2587,
              "z": 19.4673
            }
          },
          {
            "elSymbol": "H",
            "p3d": {
              "x": 0.7008,
              "y": 1.4356,
              "z": 19.9909
            }
          },
          {
            "elSymbol": "H",
            "p3d": {
              "x": 1.6761,
              "y": 2.9055,
              "z": 20.224
            }
          },
          {
            "elSymbol": "C",
            "p3d": {
              "x": 0.2145,
              "y": 3.0313,
              "z": 18.6782
            }
          },
          {
            "elSymbol": "H",
            "p3d": {
              "x": -0.4814,
              "y": 3.5202,
              "z": 19.3328
            }
          },
          {
            "elSymbol": "H",
            "p3d": {
              "x": -0.3461,
              "y": 2.3431,
              "z": 18.0363
            }
          },
          {
            "elSymbol": "C",
            "p3d": {
              "x": 0.9189,
              "y": 4.0677,
              "z": 17.8031
            }
          },
          {
            "elSymbol": "H",
            "p3d": {
              "x": 0.1705,
              "y": 4.5445,
              "z": 17.1575
            }
          },
          {
            "elSymbol": "H",
            "p3d": {
              "x": 1.3757,
              "y": 4.8286,
              "z": 18.4283
            }
          },
          {
            "elSymbol": "C",
            "p3d": {
              "x": 1.9754,
              "y": 3.4167,
              "z": 16.9636
            }
          },
          {
            "elSymbol": "H",
            "p3d": {
              "x": 1.4943,
              "y": 2.7385,
              "z": 16.2522
            }
          },
          {
            "elSymbol": "H",
            "p3d": {
              "x": 2.4831,
              "y": 4.1915,
              "z": 16.365
            }
          }
        ],
        "bonds": [
          {
            "atomIds": [
              1,
              0
            ],
            "bo": "SINGLE"
          },
          {
            "atomIds": [
              2,
              1
            ],
            "bo": "SINGLE"
          },
          {
            "atomIds": [
              3,
              1
            ],
            "bo": "SINGLE"
          },
          {
            "atomIds": [
              4,
              1
            ],
            "bo": "SINGLE"
          },
          {
            "atomIds": [
              5,
              4
            ],
            "bo": "SINGLE"
          },
          {
            "atomIds": [
              6,
              4
            ],
            "bo": "SINGLE"
          },
          {
            "atomIds": [
              7,
              4
            ],
            "bo": "SINGLE"
          },
          {
            "atomIds": [
              8,
              7
            ],
            "bo": "SINGLE"
          },
          {
            "atomIds": [
              9,
              7
            ],
            "bo": "SINGLE"
          },
          {
            "atomIds": [
              10,
              7
            ],
            "bo": "SINGLE"
          },
          {
            "atomIds": [
              11,
              10
            ],
            "bo": "SINGLE"
          },
          {
            "atomIds": [
              12,
              10
            ],
            "bo": "SINGLE"
          },
          {
            "atomIds": [
              13,
              0
            ],
            "bo": "SINGLE"
          },
          {
            "atomIds": [
              14,
              13
            ],
            "bo": "SINGLE"
          },
          {
            "atomIds": [
              15,
              13
            ],
            "bo": "SINGLE"
          },
          {
            "atomIds": [
              10,
              13
            ],
            "bo": "SINGLE"
          }
        ]
      },
      "vertexId": 342805,
      "buildingBlockId": 7,
      "buildingBlockType": "FRAGMENT",
      "isRCV": false,
      "properties": {
        "ATTACHMENT_POINTS": "1#LAminoPhosphineCycloN:1:SINGLE:4.5550%2.7674%17.4338 "
      },
      "uniquefyingPropertyKeys": [],
      "allowedMutationTypes": [
        "DELETE",
        "EXTEND",
        "CHANGEBRANCH",
        "CHANGELINK",
        "ADDLINK",
        "DELETELINK",
        "DELETECHAIN"
      ],
      "vertexType": "MolecularFragment"
    },
    {
      "lstAPs": [
        {
          "id": 446465,
          "atomPositionNumber": 1,
          "atomPositionNumberInMol": 24,
          "apClass": {
            "rule": "SubRM",
            "subClass": 1,
            "bndTyp": "SINGLE"
          },
          "dirVec": {
            "x": 0.2868,
            "y": 0.385,
            "z": -0.643
          }
        }
      ],
      "lstSymAPs": [],
      "mol": {
        "atoms": [
          {
            "elSymbol": "C",
            "p3d": {
              "x": 1.141,
              "y": 1.0262,
              "z": 1.6347
            }
          },
          {
            "elSymbol": "C",
            "p3d": {
              "x": 0.3967,
              "y": -0.0479,
              "z": 0.8227
            }
          },
          {
            "elSymbol": "C",
            "p3d": {
              "x": 1.1459,
              "y": -1.371,
              "z": 0.9201
            }
          },
          {
            "elSymbol": "H",
            "p3d": {
              "x": 2.1461,
              "y": -1.2583,
              "z": 0.4976
            }
          },
          {
            "elSymbol": "H",
            "p3d": {
              "x": 0.6013,
              "y": -2.1408,
              "z": 0.3461
            }
          },
          {
            "elSymbol": "H",
            "p3d": {
              "x": 1.2113,
              "y": -1.6946,
              "z": 1.9559
            }
          },
          {
            "elSymbol": "H",
            "p3d": {
              "x": 2.1541,
              "y": 1.1435,
              "z": 1.2119
            }
          },
          {
            "elSymbol": "H",
            "p3d": {
              "x": 0.6143,
              "y": 1.976,
              "z": 1.5626
            }
          },
          {
            "elSymbol": "H",
            "p3d": {
              "x": 1.2058,
              "y": 0.7088,
              "z": 2.6868
            }
          },
          {
            "elSymbol": "H",
            "p3d": {
              "x": -0.6215,
              "y": -0.1789,
              "z": 1.2377
            }
          }
        ],
        "bonds": [
          {
            "atomIds": [
              0,
              1
            ],
            "bo": "SINGLE"
          },
          {
            "atomIds": [
              1,
              2
            ],
            "bo": "SINGLE"
          },
          {
            "atomIds": [
              2,
              3
            ],
            "bo": "SINGLE"
          },
          {
            "atomIds": [
              2,
              4
            ],
            "bo": "SINGLE"
          },
          {
            "atomIds": [
              2,
              5
            ],
            "bo": "SINGLE"
          },
          {
            "atomIds": [
              0,
              6
            ],
            "bo": "SINGLE"
          },
          {
            "atomIds": [
              0,
              7
            ],
            "bo": "SINGLE"
          },
          {
            "atomIds": [
              0,
              8
            ],
            "bo": "SINGLE"
          },
          {
            "atomIds": [
              1,
              9
            ],
            "bo": "SINGLE"
          }
        ]
      },
      "vertexId": 342645,
      "buildingBlockId": 32,
      "buildingBlockType": "FRAGMENT",
      "isRCV": false,
      "properties": {
        "ATTACHMENT_POINTS": "2#SubRM:1:SINGLE:0.2868%0.3850%-0.6430 "
      },
      "uniquefyingPropertyKeys": [],
      "allowedMutationTypes": [
        "DELETE",
        "EXTEND",
        "CHANGEBRANCH",
        "CHANGELINK",
        "ADDLINK",
        "DELETELINK",
        "DELETECHAIN"
      ],
      "vertexType": "MolecularFragment"
    },
    {
      "lstAPs": [
        {
          "id": 446466,
          "atomPositionNumber": 0,
          "atomPositionNumberInMol": 33,
          "apClass": {
            "rule": "LAminoPhosphineCycloN",
            "subClass": 1,
            "bndTyp": "SINGLE"
          },
          "dirVec": {
            "x": 4.555,
            "y": 2.7674,
            "z": 17.4338
          }
        }
      ],
      "lstSymAPs": [],
      "mol": {
        "atoms": [
          {
            "elSymbol": "N",
            "p3d": {
              "x": 2.9381,
              "y": 2.7068,
              "z": 17.7892
            }
          },
          {
            "elSymbol": "C",
            "p3d": {
              "x": 2.2822,
              "y": 1.6786,
              "z": 18.5885
            }
          },
          {
            "elSymbol": "H",
            "p3d": {
              "x": 3.041,
              "y": 1.1815,
              "z": 19.2164
            }
          },
          {
            "elSymbol": "H",
            "p3d": {
              "x": 1.8455,
              "y": 0.9233,
              "z": 17.9289
            }
          },
          {
            "elSymbol": "C",
            "p3d": {
              "x": 1.221,
              "y": 2.2587,
              "z": 19.4673
            }
          },
          {
            "elSymbol": "H",
            "p3d": {
              "x": 0.7008,
              "y": 1.4356,
              "z": 19.9909
            }
          },
          {
            "elSymbol": "H",
            "p3d": {
              "x": 1.6761,
              "y": 2.9055,
              "z": 20.224
            }
          },
          {
            "elSymbol": "C",
            "p3d": {
              "x": 0.2145,
              "y": 3.0313,
              "z": 18.6782
            }
          },
          {
            "elSymbol": "H",
            "p3d": {
              "x": -0.4814,
              "y": 3.5202,
              "z": 19.3328
            }
          },
          {
            "elSymbol": "H",
            "p3d": {
              "x": -0.3461,
              "y": 2.3431,
              "z": 18.0363
            }
          },
          {
            "elSymbol": "C",
            "p3d": {
              "x": 0.9189,
              "y": 4.0677,
              "z": 17.8031
            }
          },
          {
            "elSymbol": "H",
            "p3d": {
              "x": 0.1705,
              "y": 4.5445,
              "z": 17.1575
            }
          },
          {
            "elSymbol": "H",
            "p3d": {
              "x": 1.3757,
              "y": 4.8286,
              "z": 18.4283
            }
          },
          {
            "elSymbol": "C",
            "p3d": {
              "x": 1.9754,
              "y": 3.4167,
              "z": 16.9636
            }
          },
          {
            "elSymbol": "H",
            "p3d": {
              "x": 1.4943,
              "y": 2.7385,
              "z": 16.2522
            }
          },
          {
            "elSymbol": "H",
            "p3d": {
              "x": 2.4831,
              "y": 4.1915,
              "z": 16.365
            }
          }
        ],
        "bonds": [
          {
            "atomIds": [
              1,
              0
            ],
            "bo": "SINGLE"
          },
          {
            "atomIds": [
              2,
              1
            ],
            "bo": "SINGLE"
          },
          {
            "atomIds": [
              3,
              1
            ],
            "bo": "SINGLE"
          },
          {
            "atomIds": [
              4,
              1
            ],
            "bo": "SINGLE"
          },
          {
            "atomIds": [
              5,
              4
            ],
            "bo": "SINGLE"
          },
          {
            "atomIds": [
              6,
              4
            ],
            "bo": "SINGLE"
          },
          {
            "atomIds": [
              7,
              4
            ],
            "bo": "SINGLE"
          },
          {
            "atomIds": [
              8,
              7
            ],
            "bo": "SINGLE"
          },
          {
            "atomIds": [
              9,
              7
            ],
            "bo": "SINGLE"
          },
          {
            "atomIds": [
              10,
              7
            ],
            "bo": "SINGLE"
          },
          {
            "atomIds": [
              11,
              10
            ],
            "bo": "SINGLE"
          },
          {
            "atomIds": [
              12,
              10
            ],
            "bo": "SINGLE"
          },
          {
            "atomIds": [
              13,
              0
            ],
            "bo": "SINGLE"
          },
          {
            "atomIds": [
              14,
              13
            ],
            "bo": "SINGLE"
          },
          {
            "atomIds": [
              15,
              13
            ],
            "bo": "SINGLE"
          },
          {
            "atomIds": [
              10,
              13
            ],
            "bo": "SINGLE"
          }
        ]
      },
      "vertexId": 342635,
      "buildingBlockId": 7,
      "buildingBlockType": "FRAGMENT",
      "isRCV": false,
      "properties": {
        "ATTACHMENT_POINTS": "1#LAminoPhosphineCycloN:1:SINGLE:4.5550%2.7674%17.4338 "
      },
      "uniquefyingPropertyKeys": [],
      "allowedMutationTypes": [
        "DELETE",
        "EXTEND",
        "CHANGEBRANCH",
        "CHANGELINK",
        "ADDLINK",
        "DELETELINK",
        "DELETECHAIN"
      ],
      "vertexType": "MolecularFragment"
    }
  ],
  "gEdges": [
    {
      "srcAPID": 446419,
      "trgAPID": 446422,
      "bondType": "SINGLE"
    },
    {
      "srcAPID": 446421,
      "trgAPID": 446426,
      "bondType": "SINGLE"
    },
    {
      "srcAPID": 446420,
      "trgAPID": 446427,
      "bondType": "SINGLE"
    },
    {
      "srcAPID": 446424,
      "trgAPID": 446464,
      "bondType": "SINGLE"
    },
    {
      "srcAPID": 446425,
      "trgAPID": 446465,
      "bondType": "SINGLE"
    },
    {
      "srcAPID": 446423,
      "trgAPID": 446466,
      "bondType": "SINGLE"
    }
  ],
  "gRings": [],
  "symVertices": [
    {
      "symIds": [
        342805,
        342635
      ]
    }
  ]
}

> <SMILES>
[Pt](C#O)(Cl)([P](N1C([H])([H])C([H])([H])C([H])([H])C([H])([H])C1([H])[H])(C(C([H])([H])[H])(C([H])([H])[H])[H])N2C([H])([H])C([H])([H])C([H])([H])C([H])([H])C2([H])[H])Cl

$$$$
