M00001909
  CDK     04222209203D

 35 34  0  0  0  0  0  0  0  0999 V2000
   -1.6058   -0.2060    0.4196 Pt  0  0  0  0  0  0  0  0  0  0  0  0
   -3.5449   -0.3869    0.3556 C   0  0  0  0  0  0  0  0  0  0  0  0
   -4.6789   -0.5374    0.3203 O   0  0  0  0  0  0  0  0  0  0  0  0
   -1.0225    1.7767    0.2865 O   0  0  0  0  0  0  0  0  0  0  0  0
   -2.1114    2.6562    0.1302 C   0  0  0  0  0  0  0  0  0  0  0  0
   -1.6873    3.6680    0.0780 H   0  0  0  0  0  0  0  0  0  0  0  0
   -2.7777    2.5727    0.9978 H   0  0  0  0  0  0  0  0  0  0  0  0
   -2.6443    2.4217   -0.7994 H   0  0  0  0  0  0  0  0  0  0  0  0
    0.6698   -0.0959    0.4404 P   0  0  0  0  0  0  0  0  0  0  0  0
    1.3751    1.2521    1.5237 C   0  0  0  0  0  0  0  0  0  0  0  0
    1.2612    1.0133    2.5880 H   0  0  0  0  0  0  0  0  0  0  0  0
    2.4312    1.4446    1.3145 H   0  0  0  0  0  0  0  0  0  0  0  0
    0.8069    2.1926    1.3452 H   0  0  0  0  0  0  0  0  0  0  0  0
    1.2085    0.1666   -1.3883 C   0  0  0  0  0  0  0  0  0  0  0  0
    1.2478    1.6678   -1.6627 C   0  0  0  0  0  0  0  0  0  0  0  0
    2.5698   -0.4719   -1.6578 C   0  0  0  0  0  0  0  0  0  0  0  0
    0.1006   -0.5130   -2.1990 C   0  0  0  0  0  0  0  0  0  0  0  0
    2.0880    2.1757   -1.1769 H   0  0  0  0  0  0  0  0  0  0  0  0
   -0.8932   -0.0512   -2.0399 H   0  0  0  0  0  0  0  0  0  0  0  0
    2.5667   -1.5632   -1.5425 H   0  0  0  0  0  0  0  0  0  0  0  0
    3.3726   -0.0627   -1.0339 H   0  0  0  0  0  0  0  0  0  0  0  0
    0.3024   -0.4235   -3.2763 H   0  0  0  0  0  0  0  0  0  0  0  0
    0.0023   -1.5904   -1.9986 H   0  0  0  0  0  0  0  0  0  0  0  0
    1.3426    1.8628   -2.7390 H   0  0  0  0  0  0  0  0  0  0  0  0
    0.3201    2.1809   -1.3367 H   0  0  0  0  0  0  0  0  0  0  0  0
    2.8705   -0.2829   -2.7002 H   0  0  0  0  0  0  0  0  0  0  0  0
    1.4544   -1.6877    1.0512 C   0  0  0  0  0  0  0  0  0  0  0  0
    1.0907   -2.5485    0.4661 H   0  0  0  0  0  0  0  0  0  0  0  0
    2.5469   -1.6646    0.9884 H   0  0  0  0  0  0  0  0  0  0  0  0
    1.1773   -1.8828    2.0963 H   0  0  0  0  0  0  0  0  0  0  0  0
   -2.0839   -2.4633    0.5616 S   0  0  0  0  0  0  0  0  0  0  0  0
   -1.9557   -2.6249    2.3651 C   0  0  0  0  0  0  0  0  0  0  0  0
   -2.8570   -3.1123    2.7542 H   0  0  0  0  0  0  0  0  0  0  0  0
   -1.8537   -1.6429    2.8417 H   0  0  0  0  0  0  0  0  0  0  0  0
   -1.0893   -3.2397    2.6270 H   0  0  0  0  0  0  0  0  0  0  0  0
  2  3  3  0  0  0  0
  1  2  1  0  0  0  0
  5  6  1  0  0  0  0
  5  7  1  0  0  0  0
  5  8  1  0  0  0  0
  4  5  1  0  0  0  0
  1  4  1  0  0  0  0
  1  9  1  0  0  0  0
 10 11  1  0  0  0  0
 10 12  1  0  0  0  0
 10 13  1  0  0  0  0
  9 10  1  0  0  0  0
 14 15  1  0  0  0  0
 14 16  1  0  0  0  0
 14 17  1  0  0  0  0
 15 18  1  0  0  0  0
 17 19  1  0  0  0  0
 16 20  1  0  0  0  0
 16 21  1  0  0  0  0
 17 22  1  0  0  0  0
 17 23  1  0  0  0  0
 15 24  1  0  0  0  0
 15 25  1  0  0  0  0
 16 26  1  0  0  0  0
  9 14  1  0  0  0  0
 27 28  1  0  0  0  0
 27 29  1  0  0  0  0
 27 30  1  0  0  0  0
  9 27  1  0  0  0  0
 32 33  1  0  0  0  0
 32 34  1  0  0  0  0
 32 35  1  0  0  0  0
 31 32  1  0  0  0  0
  1 31  1  0  0  0  0
M  END
> <PM6_ENERGY>
-458.754

> <UID>
QMVORTLXPLREIW-XLCUFDSKNA-M

> <FITNESS>
1.14449

> <GCODE>
2550

> <GraphENC>
2550 72_1_0,80_65_1,108_46_1,85_64_1,47239_31_1,47255_34_1,47326_31_1, 72_0_80_0_SINGLE_Xlig:0_Xlig:1,72_2_108_3_SINGLE_scaff:0_MPhosphine:1,72_1_85_0_SINGLE_Xlig:0_Xlig:1,108_0_47239_0_SINGLE_LPhosphineSubMSym:0_SubRS:1,108_2_47255_0_SINGLE_LPhosphineSubM:0_SubRL:1,108_1_47326_0_SINGLE_LPhosphineSubMSym:0_SubRS:1, SymmetricSet [symIds=[47239, 47326]] 

> <GraphJson>
{
  "graphId": 2550,
  "gVertices": [
    {
      "lstAPs": [
        {
          "id": 63188,
          "atomPositionNumber": 0,
          "atomPositionNumberInMol": 0,
          "apClass": {
            "rule": "Xlig",
            "subClass": 0,
            "bndTyp": "SINGLE"
          },
          "dirVec": {
            "x": -2.3339,
            "y": -0.0087,
            "z": 0.8172
          }
        },
        {
          "id": 63189,
          "atomPositionNumber": 0,
          "atomPositionNumberInMol": 0,
          "apClass": {
            "rule": "Xlig",
            "subClass": 0,
            "bndTyp": "SINGLE"
          },
          "dirVec": {
            "x": 2.336,
            "y": -5.0E-4,
            "z": 0.829
          }
        },
        {
          "id": 63190,
          "atomPositionNumber": 0,
          "atomPositionNumberInMol": 0,
          "apClass": {
            "rule": "scaff",
            "subClass": 0,
            "bndTyp": "SINGLE"
          },
          "dirVec": {
            "x": -0.0095,
            "y": 0.0046,
            "z": -1.7113
          }
        }
      ],
      "lstSymAPs": [
        {
          "symIds": [
            0,
            1
          ]
        }
      ],
      "mol": {
        "atoms": [
          {
            "elSymbol": "Pt",
            "p3d": {
              "x": -0.0098,
              "y": 0.0049,
              "z": 0.6289
            }
          },
          {
            "elSymbol": "C",
            "p3d": {
              "x": -6.0E-4,
              "y": 0.0016,
              "z": 2.5609
            }
          },
          {
            "elSymbol": "O",
            "p3d": {
              "x": 0.0025,
              "y": -0.0041,
              "z": 3.6974
            }
          },
          {
            "elSymbol": "Du",
            "p3d": {
              "x": -0.007,
              "y": 1.0013,
              "z": 0.6372
            }
          },
          {
            "elSymbol": "Du",
            "p3d": {
              "x": -0.0014,
              "y": 0.9902,
              "z": 2.5698
            }
          }
        ],
        "bonds": [
          {
            "atomIds": [
              1,
              2
            ],
            "bo": "TRIPLE"
          },
          {
            "atomIds": [
              0,
              1
            ],
            "bo": "SINGLE"
          },
          {
            "atomIds": [
              3,
              0
            ],
            "bo": "SINGLE"
          },
          {
            "atomIds": [
              4,
              1
            ],
            "bo": "SINGLE"
          }
        ]
      },
      "vertexId": 72,
      "buildingBlockId": 0,
      "buildingBlockType": "SCAFFOLD",
      "isRCV": false,
      "properties": {
        "ATTACHMENT_POINTS": "1#Xlig:0:SINGLE:-2.3339%-0.0087%0.8172,Xlig:0:SINGLE:2.3360%-0.0005%0.8290,scaff:0:SINGLE:-0.0095%0.0046%-1.7113 "
      },
      "uniquefyingPropertyKeys": [],
      "allowedMutationTypes": [
        "DELETE",
        "EXTEND",
        "CHANGEBRANCH",
        "CHANGELINK",
        "ADDLINK",
        "DELETELINK",
        "DELETECHAIN"
      ],
      "vertexType": "MolecularFragment"
    },
    {
      "lstAPs": [
        {
          "id": 63191,
          "atomPositionNumber": 0,
          "atomPositionNumberInMol": 5,
          "apClass": {
            "rule": "Xlig",
            "subClass": 1,
            "bndTyp": "SINGLE"
          },
          "dirVec": {
            "x": -0.1753,
            "y": 0.0948,
            "z": -0.4464
          }
        }
      ],
      "lstSymAPs": [],
      "mol": {
        "atoms": [
          {
            "elSymbol": "O",
            "p3d": {
              "x": -0.3534,
              "y": 2.1044,
              "z": -0.7339
            }
          },
          {
            "elSymbol": "C",
            "p3d": {
              "x": -0.5345,
              "y": 2.7646,
              "z": 0.4801
            }
          },
          {
            "elSymbol": "H",
            "p3d": {
              "x": -0.3728,
              "y": 3.8337,
              "z": 0.2724
            }
          },
          {
            "elSymbol": "H",
            "p3d": {
              "x": 0.1816,
              "y": 2.4161,
              "z": 1.2384
            }
          },
          {
            "elSymbol": "H",
            "p3d": {
              "x": -1.553,
              "y": 2.6149,
              "z": 0.8489
            }
          }
        ],
        "bonds": [
          {
            "atomIds": [
              1,
              2
            ],
            "bo": "SINGLE"
          },
          {
            "atomIds": [
              1,
              3
            ],
            "bo": "SINGLE"
          },
          {
            "atomIds": [
              1,
              4
            ],
            "bo": "SINGLE"
          },
          {
            "atomIds": [
              0,
              1
            ],
            "bo": "SINGLE"
          }
        ]
      },
      "vertexId": 80,
      "buildingBlockId": 64,
      "buildingBlockType": "FRAGMENT",
      "isRCV": false,
      "properties": {
        "ATTACHMENT_POINTS": "1#Xlig:1:SINGLE:-0.1753%0.0948%-0.4464 "
      },
      "uniquefyingPropertyKeys": [],
      "allowedMutationTypes": [
        "DELETE",
        "EXTEND",
        "CHANGEBRANCH",
        "CHANGELINK",
        "ADDLINK",
        "DELETELINK",
        "DELETECHAIN"
      ],
      "vertexType": "MolecularFragment"
    },
    {
      "lstAPs": [
        {
          "id": 63192,
          "atomPositionNumber": 0,
          "atomPositionNumberInMol": 10,
          "apClass": {
            "rule": "LPhosphineSubMSym",
            "subClass": 0,
            "bndTyp": "SINGLE"
          },
          "dirVec": {
            "x": 6.6301,
            "y": -0.008,
            "z": 3.7073
          }
        },
        {
          "id": 63193,
          "atomPositionNumber": 0,
          "atomPositionNumberInMol": 10,
          "apClass": {
            "rule": "LPhosphineSubMSym",
            "subClass": 0,
            "bndTyp": "SINGLE"
          },
          "dirVec": {
            "x": 9.0941,
            "y": -1.5268,
            "z": 3.4114
          }
        },
        {
          "id": 63194,
          "atomPositionNumber": 0,
          "atomPositionNumberInMol": 10,
          "apClass": {
            "rule": "LPhosphineSubM",
            "subClass": 0,
            "bndTyp": "SINGLE"
          },
          "dirVec": {
            "x": 9.1017,
            "y": 1.5197,
            "z": 3.4174
          }
        },
        {
          "id": 63195,
          "atomPositionNumber": 0,
          "atomPositionNumberInMol": 10,
          "apClass": {
            "rule": "MPhosphine",
            "subClass": 1,
            "bndTyp": "SINGLE"
          },
          "dirVec": {
            "x": 7.9584,
            "y": 0.0035,
            "z": 0.5116
          }
        }
      ],
      "lstSymAPs": [
        {
          "symIds": [
            0,
            1
          ]
        }
      ],
      "mol": {
        "atoms": [
          {
            "elSymbol": "P",
            "p3d": {
              "x": 8.2404,
              "y": 0.0024,
              "z": 2.8031
            }
          }
        ],
        "bonds": []
      },
      "vertexId": 108,
      "buildingBlockId": 45,
      "buildingBlockType": "FRAGMENT",
      "isRCV": false,
      "properties": {
        "ATTACHMENT_POINTS": "1#LPhosphineSubMSym:0:SINGLE:6.6301%-0.0080%3.7073,LPhosphineSubMSym:0:SINGLE:9.0941%-1.5268%3.4114,LPhosphineSubM:0:SINGLE:9.1017%1.5197%3.4174,MPhosphine:1:SINGLE:7.9584%0.0035%0.5116 "
      },
      "uniquefyingPropertyKeys": [],
      "allowedMutationTypes": [
        "DELETE",
        "EXTEND",
        "CHANGEBRANCH",
        "CHANGELINK",
        "ADDLINK",
        "DELETELINK",
        "DELETECHAIN"
      ],
      "vertexType": "MolecularFragment"
    },
    {
      "lstAPs": [
        {
          "id": 63196,
          "atomPositionNumber": 0,
          "atomPositionNumberInMol": 32,
          "apClass": {
            "rule": "Xlig",
            "subClass": 1,
            "bndTyp": "SINGLE"
          },
          "dirVec": {
            "x": -0.102,
            "y": 0.0185,
            "z": -1.0265
          }
        }
      ],
      "lstSymAPs": [],
      "mol": {
        "atoms": [
          {
            "elSymbol": "S",
            "p3d": {
              "x": -0.3267,
              "y": 2.3403,
              "z": -1.0022
            }
          },
          {
            "elSymbol": "C",
            "p3d": {
              "x": -0.626,
              "y": 2.4866,
              "z": 0.7805
            }
          },
          {
            "elSymbol": "H",
            "p3d": {
              "x": 0.1766,
              "y": 3.089,
              "z": 1.2414
            }
          },
          {
            "elSymbol": "H",
            "p3d": {
              "x": -0.651,
              "y": 1.5065,
              "z": 1.2643
            }
          },
          {
            "elSymbol": "H",
            "p3d": {
              "x": -1.5658,
              "y": 2.981,
              "z": 0.9515
            }
          }
        ],
        "bonds": [
          {
            "atomIds": [
              1,
              2
            ],
            "bo": "SINGLE"
          },
          {
            "atomIds": [
              1,
              3
            ],
            "bo": "SINGLE"
          },
          {
            "atomIds": [
              1,
              4
            ],
            "bo": "SINGLE"
          },
          {
            "atomIds": [
              0,
              1
            ],
            "bo": "SINGLE"
          }
        ]
      },
      "vertexId": 85,
      "buildingBlockId": 63,
      "buildingBlockType": "FRAGMENT",
      "isRCV": false,
      "properties": {
        "ATTACHMENT_POINTS": "1#Xlig:1:SINGLE:-0.1020%0.0185%-1.0265 "
      },
      "uniquefyingPropertyKeys": [],
      "allowedMutationTypes": [
        "DELETE",
        "EXTEND",
        "CHANGEBRANCH",
        "CHANGELINK",
        "ADDLINK",
        "DELETELINK",
        "DELETECHAIN"
      ],
      "vertexType": "MolecularFragment"
    },
    {
      "lstAPs": [
        {
          "id": 63233,
          "atomPositionNumber": 0,
          "atomPositionNumberInMol": 11,
          "apClass": {
            "rule": "SubRS",
            "subClass": 1,
            "bndTyp": "SINGLE"
          },
          "dirVec": {
            "x": 0.2865,
            "y": 0.3959,
            "z": -0.6387
          }
        }
      ],
      "lstSymAPs": [],
      "mol": {
        "atoms": [
          {
            "elSymbol": "C",
            "p3d": {
              "x": 0.3969,
              "y": -0.0496,
              "z": 0.8235
            }
          },
          {
            "elSymbol": "H",
            "p3d": {
              "x": -0.6146,
              "y": -0.163,
              "z": 1.2402
            }
          },
          {
            "elSymbol": "H",
            "p3d": {
              "x": 0.9335,
              "y": -0.9979,
              "z": 0.8998
            }
          },
          {
            "elSymbol": "H",
            "p3d": {
              "x": 0.9252,
              "y": 0.7237,
              "z": 1.3995
            }
          }
        ],
        "bonds": [
          {
            "atomIds": [
              0,
              1
            ],
            "bo": "SINGLE"
          },
          {
            "atomIds": [
              0,
              2
            ],
            "bo": "SINGLE"
          },
          {
            "atomIds": [
              0,
              3
            ],
            "bo": "SINGLE"
          }
        ]
      },
      "vertexId": 47239,
      "buildingBlockId": 30,
      "buildingBlockType": "FRAGMENT",
      "isRCV": false,
      "properties": {
        "ATTACHMENT_POINTS": "1#SubRS:1:SINGLE:0.2865%0.3959%-0.6387 "
      },
      "uniquefyingPropertyKeys": [],
      "allowedMutationTypes": [
        "DELETE",
        "EXTEND",
        "CHANGEBRANCH",
        "CHANGELINK",
        "ADDLINK",
        "DELETELINK",
        "DELETECHAIN"
      ],
      "vertexType": "MolecularFragment"
    },
    {
      "lstAPs": [
        {
          "id": 63234,
          "atomPositionNumber": 0,
          "atomPositionNumberInMol": 15,
          "apClass": {
            "rule": "SubRL",
            "subClass": 1,
            "bndTyp": "SINGLE"
          },
          "dirVec": {
            "x": 0.2857,
            "y": 0.39,
            "z": -0.6426
          }
        }
      ],
      "lstSymAPs": [],
      "mol": {
        "atoms": [
          {
            "elSymbol": "C",
            "p3d": {
              "x": 0.3842,
              "y": -0.0523,
              "z": 0.8329
            }
          },
          {
            "elSymbol": "C",
            "p3d": {
              "x": -0.6709,
              "y": 0.6882,
              "z": 1.6615
            }
          },
          {
            "elSymbol": "C",
            "p3d": {
              "x": 0.1554,
              "y": -1.558,
              "z": 0.9277
            }
          },
          {
            "elSymbol": "C",
            "p3d": {
              "x": 1.7886,
              "y": 0.2826,
              "z": 1.3761
            }
          },
          {
            "elSymbol": "H",
            "p3d": {
              "x": -0.5899,
              "y": 0.3841,
              "z": 2.6969
            }
          },
          {
            "elSymbol": "H",
            "p3d": {
              "x": 1.8617,
              "y": -0.0274,
              "z": 2.4067
            }
          },
          {
            "elSymbol": "H",
            "p3d": {
              "x": 0.2289,
              "y": -1.8635,
              "z": 1.9737
            }
          },
          {
            "elSymbol": "H",
            "p3d": {
              "x": 0.8983,
              "y": -2.0943,
              "z": 0.3332
            }
          },
          {
            "elSymbol": "H",
            "p3d": {
              "x": 2.5395,
              "y": -0.2409,
              "z": 0.7751
            }
          },
          {
            "elSymbol": "H",
            "p3d": {
              "x": 1.9553,
              "y": 1.3543,
              "z": 1.294
            }
          },
          {
            "elSymbol": "H",
            "p3d": {
              "x": -0.4937,
              "y": 1.7723,
              "z": 1.5856
            }
          },
          {
            "elSymbol": "H",
            "p3d": {
              "x": -1.6541,
              "y": 0.4601,
              "z": 1.2602
            }
          },
          {
            "elSymbol": "H",
            "p3d": {
              "x": -0.8514,
              "y": -1.792,
              "z": 0.5518
            }
          }
        ],
        "bonds": [
          {
            "atomIds": [
              0,
              1
            ],
            "bo": "SINGLE"
          },
          {
            "atomIds": [
              0,
              2
            ],
            "bo": "SINGLE"
          },
          {
            "atomIds": [
              0,
              3
            ],
            "bo": "SINGLE"
          },
          {
            "atomIds": [
              1,
              4
            ],
            "bo": "SINGLE"
          },
          {
            "atomIds": [
              3,
              5
            ],
            "bo": "SINGLE"
          },
          {
            "atomIds": [
              2,
              6
            ],
            "bo": "SINGLE"
          },
          {
            "atomIds": [
              2,
              7
            ],
            "bo": "SINGLE"
          },
          {
            "atomIds": [
              3,
              8
            ],
            "bo": "SINGLE"
          },
          {
            "atomIds": [
              3,
              9
            ],
            "bo": "SINGLE"
          },
          {
            "atomIds": [
              1,
              10
            ],
            "bo": "SINGLE"
          },
          {
            "atomIds": [
              1,
              11
            ],
            "bo": "SINGLE"
          },
          {
            "atomIds": [
              2,
              12
            ],
            "bo": "SINGLE"
          }
        ]
      },
      "vertexId": 47255,
      "buildingBlockId": 33,
      "buildingBlockType": "FRAGMENT",
      "isRCV": false,
      "properties": {
        "ATTACHMENT_POINTS": "1#SubRL:1:SINGLE:0.2857%0.3900%-0.6426 "
      },
      "uniquefyingPropertyKeys": [],
      "allowedMutationTypes": [
        "DELETE",
        "EXTEND",
        "CHANGEBRANCH",
        "CHANGELINK",
        "ADDLINK",
        "DELETELINK",
        "DELETECHAIN"
      ],
      "vertexType": "MolecularFragment"
    },
    {
      "lstAPs": [
        {
          "id": 63235,
          "atomPositionNumber": 0,
          "atomPositionNumberInMol": 28,
          "apClass": {
            "rule": "SubRS",
            "subClass": 1,
            "bndTyp": "SINGLE"
          },
          "dirVec": {
            "x": 0.2865,
            "y": 0.3959,
            "z": -0.6387
          }
        }
      ],
      "lstSymAPs": [],
      "mol": {
        "atoms": [
          {
            "elSymbol": "C",
            "p3d": {
              "x": 0.3969,
              "y": -0.0496,
              "z": 0.8235
            }
          },
          {
            "elSymbol": "H",
            "p3d": {
              "x": -0.6146,
              "y": -0.163,
              "z": 1.2402
            }
          },
          {
            "elSymbol": "H",
            "p3d": {
              "x": 0.9335,
              "y": -0.9979,
              "z": 0.8998
            }
          },
          {
            "elSymbol": "H",
            "p3d": {
              "x": 0.9252,
              "y": 0.7237,
              "z": 1.3995
            }
          }
        ],
        "bonds": [
          {
            "atomIds": [
              0,
              1
            ],
            "bo": "SINGLE"
          },
          {
            "atomIds": [
              0,
              2
            ],
            "bo": "SINGLE"
          },
          {
            "atomIds": [
              0,
              3
            ],
            "bo": "SINGLE"
          }
        ]
      },
      "vertexId": 47326,
      "buildingBlockId": 30,
      "buildingBlockType": "FRAGMENT",
      "isRCV": false,
      "properties": {
        "ATTACHMENT_POINTS": "1#SubRS:1:SINGLE:0.2865%0.3959%-0.6387 "
      },
      "uniquefyingPropertyKeys": [],
      "allowedMutationTypes": [
        "DELETE",
        "EXTEND",
        "CHANGEBRANCH",
        "CHANGELINK",
        "ADDLINK",
        "DELETELINK",
        "DELETECHAIN"
      ],
      "vertexType": "MolecularFragment"
    }
  ],
  "gEdges": [
    {
      "srcAPID": 63188,
      "trgAPID": 63191,
      "bondType": "SINGLE"
    },
    {
      "srcAPID": 63190,
      "trgAPID": 63195,
      "bondType": "SINGLE"
    },
    {
      "srcAPID": 63189,
      "trgAPID": 63196,
      "bondType": "SINGLE"
    },
    {
      "srcAPID": 63192,
      "trgAPID": 63233,
      "bondType": "SINGLE"
    },
    {
      "srcAPID": 63194,
      "trgAPID": 63234,
      "bondType": "SINGLE"
    },
    {
      "srcAPID": 63193,
      "trgAPID": 63235,
      "bondType": "SINGLE"
    }
  ],
  "gRings": [],
  "symVertices": [
    {
      "symIds": [
        47239,
        47326
      ]
    }
  ]
}

> <SMILES>
[Pt](C#O)(OC([H])([H])[H])([P](C([H])([H])[H])(C(C([H])([H])[H])(C([H])([H])[H])C([H])([H])[H])C([H])([H])[H])SC([H])([H])[H]

$$$$
