M00006702
  CDK     04222211073D

 46 48  0  0  0  0  0  0  0  0999 V2000
    2.5296   -0.0887   -0.0862 Pt  0  0  0  0  0  0  0  0  0  0  0  0
    4.4779    0.1829   -0.0696 C   0  0  0  0  0  0  0  0  0  0  0  0
    5.5962    0.4014   -0.0664 O   0  0  0  0  0  0  0  0  0  0  0  0
    2.6449   -2.0876   -0.1866 C   0  0  0  0  0  0  0  0  0  0  0  0
    2.7935   -3.2319   -0.2320 N   0  0  0  0  0  0  0  0  0  0  0  0
    0.2679   -0.2133   -0.1230 P   0  0  0  0  0  0  0  0  0  0  0  0
   -0.3771    1.1359   -1.0677 N   0  0  0  0  0  0  0  0  0  0  0  0
   -0.4252    2.4782   -0.6104 C   0  0  0  0  0  0  0  0  0  0  0  0
   -0.0408    2.7823    0.3517 H   0  0  0  0  0  0  0  0  0  0  0  0
   -1.0008    3.2441   -1.6089 C   0  0  0  0  0  0  0  0  0  0  0  0
   -1.1807    4.3012   -1.5835 H   0  0  0  0  0  0  0  0  0  0  0  0
   -1.3178    2.3789   -2.7089 C   0  0  0  0  0  0  0  0  0  0  0  0
   -1.7701    2.6936   -3.6294 H   0  0  0  0  0  0  0  0  0  0  0  0
   -0.9357    1.0925   -2.3724 C   0  0  0  0  0  0  0  0  0  0  0  0
   -1.0214    0.1840   -2.9431 H   0  0  0  0  0  0  0  0  0  0  0  0
   -0.5988   -0.1930    1.4893 C   0  0  0  0  0  0  0  0  0  0  0  0
   -1.8650   -0.2151    3.9882 C   0  0  0  0  0  0  0  0  0  0  0  0
   -1.9940    0.0078    1.5676 C   0  0  0  0  0  0  0  0  0  0  0  0
    0.1633   -0.3846    2.6604 C   0  0  0  0  0  0  0  0  0  0  0  0
   -0.4863   -0.3995    3.9067 C   0  0  0  0  0  0  0  0  0  0  0  0
   -2.6129   -0.0093    2.8295 C   0  0  0  0  0  0  0  0  0  0  0  0
    0.0912   -0.5539    4.8178 H   0  0  0  0  0  0  0  0  0  0  0  0
   -3.6887    0.1445    2.9072 H   0  0  0  0  0  0  0  0  0  0  0  0
   -2.3606   -0.2287    4.9615 H   0  0  0  0  0  0  0  0  0  0  0  0
   -2.8859    0.2674    0.3980 C   0  0  0  0  0  0  0  0  0  0  0  0
   -2.7323   -0.3962   -0.4635 H   0  0  0  0  0  0  0  0  0  0  0  0
   -2.7704    1.3036    0.0280 H   0  0  0  0  0  0  0  0  0  0  0  0
   -3.9519    0.1636    0.6540 H   0  0  0  0  0  0  0  0  0  0  0  0
    1.6467   -0.5669    2.6681 C   0  0  0  0  0  0  0  0  0  0  0  0
    2.1882    0.3238    2.2843 H   0  0  0  0  0  0  0  0  0  0  0  0
    1.9793   -1.4661    2.1142 H   0  0  0  0  0  0  0  0  0  0  0  0
    2.0410   -0.7132    3.6887 H   0  0  0  0  0  0  0  0  0  0  0  0
   -0.2775   -1.6350   -0.9889 N   0  0  0  0  0  0  0  0  0  0  0  0
    0.2642   -2.0626   -2.2352 C   0  0  0  0  0  0  0  0  0  0  0  0
    1.0843   -1.5542   -2.7153 H   0  0  0  0  0  0  0  0  0  0  0  0
   -0.4169   -3.1994   -2.6217 C   0  0  0  0  0  0  0  0  0  0  0  0
   -0.2518   -3.7787   -3.5105 H   0  0  0  0  0  0  0  0  0  0  0  0
   -1.3900   -3.5066   -1.6081 C   0  0  0  0  0  0  0  0  0  0  0  0
   -2.0551   -4.3486   -1.6324 H   0  0  0  0  0  0  0  0  0  0  0  0
   -1.2970   -2.5528   -0.6136 C   0  0  0  0  0  0  0  0  0  0  0  0
   -1.8369   -2.4720    0.3141 H   0  0  0  0  0  0  0  0  0  0  0  0
    2.8313    2.2246    0.0560 S   0  0  0  0  0  0  0  0  0  0  0  0
    2.7490    2.5746   -1.7239 C   0  0  0  0  0  0  0  0  0  0  0  0
    1.7910    3.0526   -1.9710 H   0  0  0  0  0  0  0  0  0  0  0  0
    2.8434    1.6590   -2.3173 H   0  0  0  0  0  0  0  0  0  0  0  0
    3.5587    3.2616   -1.9957 H   0  0  0  0  0  0  0  0  0  0  0  0
  2  3  3  0  0  0  0
  1  2  1  0  0  0  0
  4  5  3  0  0  0  0
  1  4  1  0  0  0  0
  1  6  1  0  0  0  0
  7  8  1  0  0  0  0
  8  9  1  0  0  0  0
 10  8  2  0  0  0  0
 11 10  1  0  0  0  0
 12 10  1  0  0  0  0
 13 12  1  0  0  0  0
 14  7  1  0  0  0  0
 15 14  1  0  0  0  0
 12 14  2  0  0  0  0
  6  7  1  0  0  0  0
 16 19  1  0  0  0  0
 19 20  2  0  0  0  0
 17 20  1  0  0  0  0
 17 21  2  0  0  0  0
 18 21  1  0  0  0  0
 16 18  2  0  0  0  0
 20 22  1  0  0  0  0
 21 23  1  0  0  0  0
 17 24  1  0  0  0  0
 25 26  1  0  0  0  0
 25 27  1  0  0  0  0
 25 28  1  0  0  0  0
 18 25  1  0  0  0  0
 29 30  1  0  0  0  0
 29 31  1  0  0  0  0
 29 32  1  0  0  0  0
 19 29  1  0  0  0  0
  6 16  1  0  0  0  0
 33 34  1  0  0  0  0
 34 35  1  0  0  0  0
 36 34  2  0  0  0  0
 37 36  1  0  0  0  0
 38 36  1  0  0  0  0
 39 38  1  0  0  0  0
 40 33  1  0  0  0  0
 41 40  1  0  0  0  0
 38 40  2  0  0  0  0
  6 33  1  0  0  0  0
 43 44  1  0  0  0  0
 43 45  1  0  0  0  0
 43 46  1  0  0  0  0
 42 43  1  0  0  0  0
  1 42  1  0  0  0  0
M  END
> <PM6_ENERGY>
257.190

> <UID>
WYOBAPHQZQAKQC-RYDMLPIONA-M

> <FITNESS>
1.13945

> <GCODE>
7533

> <GraphENC>
7533 72_1_0,81_66_1,100_3_1,85_64_1,152097_10_1,151634_38_1,151623_10_1, 72_0_81_0_SINGLE_Xlig:0_Xlig:1,72_2_100_3_SINGLE_scaff:0_MBisAminoPhosphine:1,72_1_85_0_SINGLE_Xlig:0_Xlig:1,100_1_152097_0_SINGLE_LBisAminoPhosphineN:0_LAminoPhosphineCycloN:1,100_2_151634_0_SINGLE_LBisAminoPhosphineSubR:0_SubArL:1,100_0_151623_0_SINGLE_LBisAminoPhosphineN:0_LAminoPhosphineCycloN:1, SymmetricSet [symIds=[152097, 151623]] 

> <GraphJson>
{
  "graphId": 7533,
  "gVertices": [
    {
      "lstAPs": [
        {
          "id": 198895,
          "atomPositionNumber": 0,
          "atomPositionNumberInMol": 0,
          "apClass": {
            "rule": "Xlig",
            "subClass": 0,
            "bndTyp": "SINGLE"
          },
          "dirVec": {
            "x": -2.3339,
            "y": -0.0087,
            "z": 0.8172
          }
        },
        {
          "id": 198896,
          "atomPositionNumber": 0,
          "atomPositionNumberInMol": 0,
          "apClass": {
            "rule": "Xlig",
            "subClass": 0,
            "bndTyp": "SINGLE"
          },
          "dirVec": {
            "x": 2.336,
            "y": -5.0E-4,
            "z": 0.829
          }
        },
        {
          "id": 198897,
          "atomPositionNumber": 0,
          "atomPositionNumberInMol": 0,
          "apClass": {
            "rule": "scaff",
            "subClass": 0,
            "bndTyp": "SINGLE"
          },
          "dirVec": {
            "x": -0.0095,
            "y": 0.0046,
            "z": -1.7113
          }
        }
      ],
      "lstSymAPs": [
        {
          "symIds": [
            0,
            1
          ]
        }
      ],
      "mol": {
        "atoms": [
          {
            "elSymbol": "Pt",
            "p3d": {
              "x": -0.0098,
              "y": 0.0049,
              "z": 0.6289
            }
          },
          {
            "elSymbol": "C",
            "p3d": {
              "x": -6.0E-4,
              "y": 0.0016,
              "z": 2.5609
            }
          },
          {
            "elSymbol": "O",
            "p3d": {
              "x": 0.0025,
              "y": -0.0041,
              "z": 3.6974
            }
          },
          {
            "elSymbol": "Du",
            "p3d": {
              "x": -0.007,
              "y": 1.0013,
              "z": 0.6372
            }
          },
          {
            "elSymbol": "Du",
            "p3d": {
              "x": -0.0014,
              "y": 0.9902,
              "z": 2.5698
            }
          }
        ],
        "bonds": [
          {
            "atomIds": [
              1,
              2
            ],
            "bo": "TRIPLE"
          },
          {
            "atomIds": [
              0,
              1
            ],
            "bo": "SINGLE"
          },
          {
            "atomIds": [
              3,
              0
            ],
            "bo": "SINGLE"
          },
          {
            "atomIds": [
              4,
              1
            ],
            "bo": "SINGLE"
          }
        ]
      },
      "vertexId": 72,
      "buildingBlockId": 0,
      "buildingBlockType": "SCAFFOLD",
      "isRCV": false,
      "properties": {
        "ATTACHMENT_POINTS": "1#Xlig:0:SINGLE:-2.3339%-0.0087%0.8172,Xlig:0:SINGLE:2.3360%-0.0005%0.8290,scaff:0:SINGLE:-0.0095%0.0046%-1.7113 "
      },
      "uniquefyingPropertyKeys": [],
      "allowedMutationTypes": [
        "DELETE",
        "EXTEND",
        "CHANGEBRANCH",
        "CHANGELINK",
        "ADDLINK",
        "DELETELINK",
        "DELETECHAIN"
      ],
      "vertexType": "MolecularFragment"
    },
    {
      "lstAPs": [
        {
          "id": 198898,
          "atomPositionNumber": 0,
          "atomPositionNumberInMol": 5,
          "apClass": {
            "rule": "Xlig",
            "subClass": 1,
            "bndTyp": "SINGLE"
          },
          "dirVec": {
            "x": 0.0192,
            "y": -0.0048,
            "z": -0.5645
          }
        }
      ],
      "lstSymAPs": [],
      "mol": {
        "atoms": [
          {
            "elSymbol": "C",
            "p3d": {
              "x": -1.967,
              "y": -0.0075,
              "z": -0.4937
            }
          },
          {
            "elSymbol": "N",
            "p3d": {
              "x": -3.1263,
              "y": -0.0054,
              "z": -0.4354
            }
          },
          {
            "elSymbol": "Du",
            "p3d": {
              "x": -1.9744,
              "y": 0.9926,
              "z": -0.5036
            }
          }
        ],
        "bonds": [
          {
            "atomIds": [
              0,
              1
            ],
            "bo": "TRIPLE"
          },
          {
            "atomIds": [
              2,
              0
            ],
            "bo": "SINGLE"
          }
        ]
      },
      "vertexId": 81,
      "buildingBlockId": 65,
      "buildingBlockType": "FRAGMENT",
      "isRCV": false,
      "properties": {
        "ATTACHMENT_POINTS": "1#Xlig:1:SINGLE:0.0192%-0.0048%-0.5645 "
      },
      "uniquefyingPropertyKeys": [],
      "allowedMutationTypes": [
        "DELETE",
        "EXTEND",
        "CHANGEBRANCH",
        "CHANGELINK",
        "ADDLINK",
        "DELETELINK",
        "DELETECHAIN"
      ],
      "vertexType": "MolecularFragment"
    },
    {
      "lstAPs": [
        {
          "id": 198899,
          "atomPositionNumber": 0,
          "atomPositionNumberInMol": 8,
          "apClass": {
            "rule": "LBisAminoPhosphineN",
            "subClass": 0,
            "bndTyp": "SINGLE"
          },
          "dirVec": {
            "x": -1.9272,
            "y": -0.2351,
            "z": 5.6045
          }
        },
        {
          "id": 198900,
          "atomPositionNumber": 0,
          "atomPositionNumberInMol": 8,
          "apClass": {
            "rule": "LBisAminoPhosphineN",
            "subClass": 0,
            "bndTyp": "SINGLE"
          },
          "dirVec": {
            "x": -1.4136,
            "y": -2.2231,
            "z": 3.8983
          }
        },
        {
          "id": 198901,
          "atomPositionNumber": 0,
          "atomPositionNumberInMol": 8,
          "apClass": {
            "rule": "LBisAminoPhosphineSubR",
            "subClass": 0,
            "bndTyp": "SINGLE"
          },
          "dirVec": {
            "x": -3.1852,
            "y": -0.3594,
            "z": 3.1924
          }
        },
        {
          "id": 198902,
          "atomPositionNumber": 0,
          "atomPositionNumberInMol": 8,
          "apClass": {
            "rule": "MBisAminoPhosphine",
            "subClass": 1,
            "bndTyp": "SINGLE"
          },
          "dirVec": {
            "x": 0.1796,
            "y": 0.6567,
            "z": 3.3484
          }
        }
      ],
      "lstSymAPs": [
        {
          "symIds": [
            0,
            1
          ]
        }
      ],
      "mol": {
        "atoms": [
          {
            "elSymbol": "P",
            "p3d": {
              "x": -1.6038,
              "y": -0.5663,
              "z": 4.0324
            }
          }
        ],
        "bonds": []
      },
      "vertexId": 100,
      "buildingBlockId": 2,
      "buildingBlockType": "FRAGMENT",
      "isRCV": false,
      "properties": {
        "ATTACHMENT_POINTS": "1#LBisAminoPhosphineN:0:SINGLE:-1.9272%-0.2351%5.6045,LBisAminoPhosphineN:0:SINGLE:-1.4136%-2.2231%3.8983,LBisAminoPhosphineSubR:0:SINGLE:-3.1852%-0.3594%3.1924,MBisAminoPhosphine:1:SINGLE:0.1796%0.6567%3.3484 "
      },
      "uniquefyingPropertyKeys": [],
      "allowedMutationTypes": [
        "DELETE",
        "EXTEND",
        "CHANGEBRANCH",
        "CHANGELINK",
        "ADDLINK",
        "DELETELINK",
        "DELETECHAIN"
      ],
      "vertexType": "MolecularFragment"
    },
    {
      "lstAPs": [
        {
          "id": 198903,
          "atomPositionNumber": 0,
          "atomPositionNumberInMol": 44,
          "apClass": {
            "rule": "Xlig",
            "subClass": 1,
            "bndTyp": "SINGLE"
          },
          "dirVec": {
            "x": -0.102,
            "y": 0.0185,
            "z": -1.0265
          }
        }
      ],
      "lstSymAPs": [],
      "mol": {
        "atoms": [
          {
            "elSymbol": "S",
            "p3d": {
              "x": -0.3267,
              "y": 2.3403,
              "z": -1.0022
            }
          },
          {
            "elSymbol": "C",
            "p3d": {
              "x": -0.626,
              "y": 2.4866,
              "z": 0.7805
            }
          },
          {
            "elSymbol": "H",
            "p3d": {
              "x": 0.1766,
              "y": 3.089,
              "z": 1.2414
            }
          },
          {
            "elSymbol": "H",
            "p3d": {
              "x": -0.651,
              "y": 1.5065,
              "z": 1.2643
            }
          },
          {
            "elSymbol": "H",
            "p3d": {
              "x": -1.5658,
              "y": 2.981,
              "z": 0.9515
            }
          }
        ],
        "bonds": [
          {
            "atomIds": [
              1,
              2
            ],
            "bo": "SINGLE"
          },
          {
            "atomIds": [
              1,
              3
            ],
            "bo": "SINGLE"
          },
          {
            "atomIds": [
              1,
              4
            ],
            "bo": "SINGLE"
          },
          {
            "atomIds": [
              0,
              1
            ],
            "bo": "SINGLE"
          }
        ]
      },
      "vertexId": 85,
      "buildingBlockId": 63,
      "buildingBlockType": "FRAGMENT",
      "isRCV": false,
      "properties": {
        "ATTACHMENT_POINTS": "1#Xlig:1:SINGLE:-0.1020%0.0185%-1.0265 "
      },
      "uniquefyingPropertyKeys": [],
      "allowedMutationTypes": [
        "DELETE",
        "EXTEND",
        "CHANGEBRANCH",
        "CHANGELINK",
        "ADDLINK",
        "DELETELINK",
        "DELETECHAIN"
      ],
      "vertexType": "MolecularFragment"
    },
    {
      "lstAPs": [
        {
          "id": 198940,
          "atomPositionNumber": 0,
          "atomPositionNumberInMol": 9,
          "apClass": {
            "rule": "LAminoPhosphineCycloN",
            "subClass": 1,
            "bndTyp": "SINGLE"
          },
          "dirVec": {
            "x": -1.3075,
            "y": 5.4354,
            "z": 7.3919
          }
        }
      ],
      "lstSymAPs": [],
      "mol": {
        "atoms": [
          {
            "elSymbol": "N",
            "p3d": {
              "x": -0.1435,
              "y": 5.4101,
              "z": 8.6586
            }
          },
          {
            "elSymbol": "C",
            "p3d": {
              "x": 1.0373,
              "y": 6.1488,
              "z": 8.6167
            }
          },
          {
            "elSymbol": "H",
            "p3d": {
              "x": 1.3388,
              "y": 6.7891,
              "z": 7.7925
            }
          },
          {
            "elSymbol": "C",
            "p3d": {
              "x": 1.7319,
              "y": 5.9048,
              "z": 9.7532
            }
          },
          {
            "elSymbol": "H",
            "p3d": {
              "x": 2.7093,
              "y": 6.3384,
              "z": 10.0093
            }
          },
          {
            "elSymbol": "C",
            "p3d": {
              "x": 0.9843,
              "y": 5.0017,
              "z": 10.5353
            }
          },
          {
            "elSymbol": "H",
            "p3d": {
              "x": 1.2753,
              "y": 4.5945,
              "z": 11.5061
            }
          },
          {
            "elSymbol": "C",
            "p3d": {
              "x": -0.1556,
              "y": 4.7101,
              "z": 9.8537
            }
          },
          {
            "elSymbol": "H",
            "p3d": {
              "x": -0.9523,
              "y": 4.0313,
              "z": 10.1872
            }
          }
        ],
        "bonds": [
          {
            "atomIds": [
              0,
              1
            ],
            "bo": "SINGLE"
          },
          {
            "atomIds": [
              1,
              2
            ],
            "bo": "SINGLE"
          },
          {
            "atomIds": [
              3,
              1
            ],
            "bo": "DOUBLE"
          },
          {
            "atomIds": [
              4,
              3
            ],
            "bo": "SINGLE"
          },
          {
            "atomIds": [
              5,
              3
            ],
            "bo": "SINGLE"
          },
          {
            "atomIds": [
              6,
              5
            ],
            "bo": "SINGLE"
          },
          {
            "atomIds": [
              7,
              0
            ],
            "bo": "SINGLE"
          },
          {
            "atomIds": [
              8,
              7
            ],
            "bo": "SINGLE"
          },
          {
            "atomIds": [
              5,
              7
            ],
            "bo": "DOUBLE"
          }
        ]
      },
      "vertexId": 152097,
      "buildingBlockId": 9,
      "buildingBlockType": "FRAGMENT",
      "isRCV": false,
      "properties": {
        "ATTACHMENT_POINTS": "1#LAminoPhosphineCycloN:1:SINGLE:-1.3075%5.4354%7.3919 "
      },
      "uniquefyingPropertyKeys": [],
      "allowedMutationTypes": [
        "DELETE",
        "EXTEND",
        "CHANGEBRANCH",
        "CHANGELINK",
        "ADDLINK",
        "DELETELINK",
        "DELETECHAIN"
      ],
      "vertexType": "MolecularFragment"
    },
    {
      "lstAPs": [
        {
          "id": 198941,
          "atomPositionNumber": 0,
          "atomPositionNumberInMol": 18,
          "apClass": {
            "rule": "SubArL",
            "subClass": 1,
            "bndTyp": "SINGLE"
          },
          "dirVec": {
            "x": 0.2957,
            "y": 0.3816,
            "z": -0.6358
          }
        }
      ],
      "lstSymAPs": [],
      "mol": {
        "atoms": [
          {
            "elSymbol": "C",
            "p3d": {
              "x": 1.7088,
              "y": 0.551,
              "z": -1.2192
            }
          },
          {
            "elSymbol": "C",
            "p3d": {
              "x": 4.2535,
              "y": 0.8673,
              "z": -2.2548
            }
          },
          {
            "elSymbol": "C",
            "p3d": {
              "x": 2.3329,
              "y": 1.7979,
              "z": -1.1377
            }
          },
          {
            "elSymbol": "C",
            "p3d": {
              "x": 2.3315,
              "y": -0.5114,
              "z": -1.8171
            }
          },
          {
            "elSymbol": "C",
            "p3d": {
              "x": 3.6062,
              "y": -0.3595,
              "z": -2.3299
            }
          },
          {
            "elSymbol": "C",
            "p3d": {
              "x": 3.6205,
              "y": 1.9526,
              "z": -1.657
            }
          },
          {
            "elSymbol": "H",
            "p3d": {
              "x": 4.116,
              "y": -1.2062,
              "z": -2.8187
            }
          },
          {
            "elSymbol": "H",
            "p3d": {
              "x": 4.1193,
              "y": 2.9144,
              "z": -1.5883
            }
          },
          {
            "elSymbol": "H",
            "p3d": {
              "x": 5.2485,
              "y": 0.9961,
              "z": -2.6688
            }
          },
          {
            "elSymbol": "C",
            "p3d": {
              "x": 1.6389,
              "y": 2.9732,
              "z": -0.4581
            }
          },
          {
            "elSymbol": "H",
            "p3d": {
              "x": 2.3787,
              "y": 3.6649,
              "z": -0.0604
            }
          },
          {
            "elSymbol": "H",
            "p3d": {
              "x": 1.0049,
              "y": 2.601,
              "z": 0.3676
            }
          },
          {
            "elSymbol": "H",
            "p3d": {
              "x": 1.0013,
              "y": 3.4961,
              "z": -1.199
            }
          },
          {
            "elSymbol": "C",
            "p3d": {
              "x": 1.6397,
              "y": -1.8757,
              "z": -1.9164
            }
          },
          {
            "elSymbol": "H",
            "p3d": {
              "x": 2.3747,
              "y": -2.6603,
              "z": -1.9613
            }
          },
          {
            "elSymbol": "H",
            "p3d": {
              "x": 1.0044,
              "y": -1.9015,
              "z": -2.8054
            }
          },
          {
            "elSymbol": "H",
            "p3d": {
              "x": 1.0057,
              "y": -2.0243,
              "z": -1.0149
            }
          }
        ],
        "bonds": [
          {
            "atomIds": [
              0,
              3
            ],
            "bo": "SINGLE"
          },
          {
            "atomIds": [
              3,
              4
            ],
            "bo": "DOUBLE"
          },
          {
            "atomIds": [
              1,
              4
            ],
            "bo": "SINGLE"
          },
          {
            "atomIds": [
              1,
              5
            ],
            "bo": "DOUBLE"
          },
          {
            "atomIds": [
              2,
              5
            ],
            "bo": "SINGLE"
          },
          {
            "atomIds": [
              0,
              2
            ],
            "bo": "DOUBLE"
          },
          {
            "atomIds": [
              4,
              6
            ],
            "bo": "SINGLE"
          },
          {
            "atomIds": [
              5,
              7
            ],
            "bo": "SINGLE"
          },
          {
            "atomIds": [
              1,
              8
            ],
            "bo": "SINGLE"
          },
          {
            "atomIds": [
              9,
              10
            ],
            "bo": "SINGLE"
          },
          {
            "atomIds": [
              9,
              11
            ],
            "bo": "SINGLE"
          },
          {
            "atomIds": [
              9,
              12
            ],
            "bo": "SINGLE"
          },
          {
            "atomIds": [
              2,
              9
            ],
            "bo": "SINGLE"
          },
          {
            "atomIds": [
              13,
              14
            ],
            "bo": "SINGLE"
          },
          {
            "atomIds": [
              13,
              15
            ],
            "bo": "SINGLE"
          },
          {
            "atomIds": [
              13,
              16
            ],
            "bo": "SINGLE"
          },
          {
            "atomIds": [
              3,
              13
            ],
            "bo": "SINGLE"
          }
        ]
      },
      "vertexId": 151634,
      "buildingBlockId": 37,
      "buildingBlockType": "FRAGMENT",
      "isRCV": false,
      "properties": {
        "ATTACHMENT_POINTS": "1#SubArL:1:SINGLE:0.2957%0.3816%-0.6358 "
      },
      "uniquefyingPropertyKeys": [],
      "allowedMutationTypes": [
        "DELETE",
        "EXTEND",
        "CHANGEBRANCH",
        "CHANGELINK",
        "ADDLINK",
        "DELETELINK",
        "DELETECHAIN"
      ],
      "vertexType": "MolecularFragment"
    },
    {
      "lstAPs": [
        {
          "id": 198942,
          "atomPositionNumber": 0,
          "atomPositionNumberInMol": 35,
          "apClass": {
            "rule": "LAminoPhosphineCycloN",
            "subClass": 1,
            "bndTyp": "SINGLE"
          },
          "dirVec": {
            "x": -1.3075,
            "y": 5.4354,
            "z": 7.3919
          }
        }
      ],
      "lstSymAPs": [],
      "mol": {
        "atoms": [
          {
            "elSymbol": "N",
            "p3d": {
              "x": -0.1435,
              "y": 5.4101,
              "z": 8.6586
            }
          },
          {
            "elSymbol": "C",
            "p3d": {
              "x": 1.0373,
              "y": 6.1488,
              "z": 8.6167
            }
          },
          {
            "elSymbol": "H",
            "p3d": {
              "x": 1.3388,
              "y": 6.7891,
              "z": 7.7925
            }
          },
          {
            "elSymbol": "C",
            "p3d": {
              "x": 1.7319,
              "y": 5.9048,
              "z": 9.7532
            }
          },
          {
            "elSymbol": "H",
            "p3d": {
              "x": 2.7093,
              "y": 6.3384,
              "z": 10.0093
            }
          },
          {
            "elSymbol": "C",
            "p3d": {
              "x": 0.9843,
              "y": 5.0017,
              "z": 10.5353
            }
          },
          {
            "elSymbol": "H",
            "p3d": {
              "x": 1.2753,
              "y": 4.5945,
              "z": 11.5061
            }
          },
          {
            "elSymbol": "C",
            "p3d": {
              "x": -0.1556,
              "y": 4.7101,
              "z": 9.8537
            }
          },
          {
            "elSymbol": "H",
            "p3d": {
              "x": -0.9523,
              "y": 4.0313,
              "z": 10.1872
            }
          }
        ],
        "bonds": [
          {
            "atomIds": [
              0,
              1
            ],
            "bo": "SINGLE"
          },
          {
            "atomIds": [
              1,
              2
            ],
            "bo": "SINGLE"
          },
          {
            "atomIds": [
              3,
              1
            ],
            "bo": "DOUBLE"
          },
          {
            "atomIds": [
              4,
              3
            ],
            "bo": "SINGLE"
          },
          {
            "atomIds": [
              5,
              3
            ],
            "bo": "SINGLE"
          },
          {
            "atomIds": [
              6,
              5
            ],
            "bo": "SINGLE"
          },
          {
            "atomIds": [
              7,
              0
            ],
            "bo": "SINGLE"
          },
          {
            "atomIds": [
              8,
              7
            ],
            "bo": "SINGLE"
          },
          {
            "atomIds": [
              5,
              7
            ],
            "bo": "DOUBLE"
          }
        ]
      },
      "vertexId": 151623,
      "buildingBlockId": 9,
      "buildingBlockType": "FRAGMENT",
      "isRCV": false,
      "properties": {
        "ATTACHMENT_POINTS": "1#LAminoPhosphineCycloN:1:SINGLE:-1.3075%5.4354%7.3919 "
      },
      "uniquefyingPropertyKeys": [],
      "allowedMutationTypes": [
        "DELETE",
        "EXTEND",
        "CHANGEBRANCH",
        "CHANGELINK",
        "ADDLINK",
        "DELETELINK",
        "DELETECHAIN"
      ],
      "vertexType": "MolecularFragment"
    }
  ],
  "gEdges": [
    {
      "srcAPID": 198895,
      "trgAPID": 198898,
      "bondType": "SINGLE"
    },
    {
      "srcAPID": 198897,
      "trgAPID": 198902,
      "bondType": "SINGLE"
    },
    {
      "srcAPID": 198896,
      "trgAPID": 198903,
      "bondType": "SINGLE"
    },
    {
      "srcAPID": 198900,
      "trgAPID": 198940,
      "bondType": "SINGLE"
    },
    {
      "srcAPID": 198901,
      "trgAPID": 198941,
      "bondType": "SINGLE"
    },
    {
      "srcAPID": 198899,
      "trgAPID": 198942,
      "bondType": "SINGLE"
    }
  ],
  "gRings": [],
  "symVertices": [
    {
      "symIds": [
        152097,
        151623
      ]
    }
  ]
}

> <SMILES>
[Pt](C#O)(C#N)([P](N1C([H])=C([H])C([H])=C1[H])(C=2C(=C(C(=C(C2C([H])([H])[H])[H])[H])[H])C([H])([H])[H])N3C([H])=C([H])C([H])=C3[H])SC([H])([H])[H]

$$$$
