M00001464
  CDK     04222209103D

 59 63  0  0  0  0  0  0  0  0999 V2000
    3.2271    0.2916   -0.7536 Pt  0  0  0  0  0  0  0  0  0  0  0  0
    5.1404    0.5882   -0.6537 C   0  0  0  0  0  0  0  0  0  0  0  0
    6.2570    0.8301   -0.5965 O   0  0  0  0  0  0  0  0  0  0  0  0
    3.5622   -1.7406   -1.0040 O   0  0  0  0  0  0  0  0  0  0  0  0
    3.1260   -2.1859   -2.2620 C   0  0  0  0  0  0  0  0  0  0  0  0
    3.4893   -3.2187   -2.3633 H   0  0  0  0  0  0  0  0  0  0  0  0
    3.5544   -1.5568   -3.0533 H   0  0  0  0  0  0  0  0  0  0  0  0
    2.0287   -2.1651   -2.3030 H   0  0  0  0  0  0  0  0  0  0  0  0
    0.3732   -0.0520    0.1046 N   0  0  0  0  0  0  0  0  0  0  0  0
    0.5151    0.5075   -2.1115 C   0  0  0  0  0  0  0  0  0  0  0  0
    0.9876    0.8621   -3.3678 C   0  0  0  0  0  0  0  0  0  0  0  0
    2.0599    0.9692   -3.5490 H   0  0  0  0  0  0  0  0  0  0  0  0
    0.0427    1.0879   -4.3848 C   0  0  0  0  0  0  0  0  0  0  0  0
    0.3868    1.3689   -5.3806 H   0  0  0  0  0  0  0  0  0  0  0  0
   -1.3249    0.9667   -4.1313 C   0  0  0  0  0  0  0  0  0  0  0  0
   -2.0408    1.1517   -4.9339 H   0  0  0  0  0  0  0  0  0  0  0  0
   -1.8059    0.6176   -2.8539 C   0  0  0  0  0  0  0  0  0  0  0  0
   -2.8751    0.5408   -2.6644 H   0  0  0  0  0  0  0  0  0  0  0  0
   -0.8789    0.3892   -1.8536 C   0  0  0  0  0  0  0  0  0  0  0  0
   -1.0933    0.0496   -0.3701 C   0  0  0  0  0  0  0  0  0  0  0  0
    1.2553    0.2205   -0.8786 C   0  0  1  0  0  0  0  0  0  0  0  0
   -1.7337   -1.3072   -0.1300 C   0  0  0  0  0  0  0  0  0  0  0  0
   -2.2368   -1.6389    1.1383 C   0  0  0  0  0  0  0  0  0  0  0  0
   -2.1848   -0.9185    1.9563 H   0  0  0  0  0  0  0  0  0  0  0  0
   -2.8040   -2.8946    1.3660 C   0  0  0  0  0  0  0  0  0  0  0  0
   -3.1899   -3.1433    2.3540 H   0  0  0  0  0  0  0  0  0  0  0  0
   -2.8704   -3.8340    0.3322 C   0  0  0  0  0  0  0  0  0  0  0  0
   -3.3117   -4.8137    0.5113 H   0  0  0  0  0  0  0  0  0  0  0  0
   -2.3615   -3.5132   -0.9291 C   0  0  0  0  0  0  0  0  0  0  0  0
   -2.4021   -4.2446   -1.7357 H   0  0  0  0  0  0  0  0  0  0  0  0
   -1.7907   -2.2581   -1.1597 C   0  0  0  0  0  0  0  0  0  0  0  0
   -1.3857   -2.0327   -2.1474 H   0  0  0  0  0  0  0  0  0  0  0  0
   -1.8210    1.2383    0.2444 C   0  0  0  0  0  0  0  0  0  0  0  0
   -3.2077    1.1827    0.4472 C   0  0  0  0  0  0  0  0  0  0  0  0
   -3.7682    0.2790    0.2035 H   0  0  0  0  0  0  0  0  0  0  0  0
   -3.8882    2.2921    0.9568 C   0  0  0  0  0  0  0  0  0  0  0  0
   -4.9642    2.2387    1.1180 H   0  0  0  0  0  0  0  0  0  0  0  0
   -3.1942    3.4685    1.2532 C   0  0  0  0  0  0  0  0  0  0  0  0
   -3.7256    4.3320    1.6511 H   0  0  0  0  0  0  0  0  0  0  0  0
   -1.8160    3.5362    1.0267 C   0  0  0  0  0  0  0  0  0  0  0  0
   -1.2714    4.4567    1.2387 H   0  0  0  0  0  0  0  0  0  0  0  0
   -1.1312    2.4307    0.5170 C   0  0  0  0  0  0  0  0  0  0  0  0
   -0.0560    2.5105    0.3240 H   0  0  0  0  0  0  0  0  0  0  0  0
    0.7785   -0.4186    1.4471 C   0  0  0  0  0  0  0  0  0  0  0  0
    1.6262   -1.1501    4.0012 C   0  0  0  0  0  0  0  0  0  0  0  0
    0.1266    0.1129    2.5701 C   0  0  0  0  0  0  0  0  0  0  0  0
    1.8598   -1.3089    1.5902 C   0  0  0  0  0  0  0  0  0  0  0  0
    2.2743   -1.6677    2.8743 C   0  0  0  0  0  0  0  0  0  0  0  0
    0.5575   -0.2625    3.8454 C   0  0  0  0  0  0  0  0  0  0  0  0
   -0.6965    0.8196    2.4645 H   0  0  0  0  0  0  0  0  0  0  0  0
    2.3762   -1.7365    0.7089 H   0  0  0  0  0  0  0  0  0  0  0  0
    3.1103   -2.3595    2.9921 H   0  0  0  0  0  0  0  0  0  0  0  0
    0.0568    0.1462    4.7230 H   0  0  0  0  0  0  0  0  0  0  0  0
    1.9555   -1.4380    4.9987 H   0  0  0  0  0  0  0  0  0  0  0  0
    2.9976    2.5441   -0.3571 S   0  0  0  0  0  0  0  0  0  0  0  0
    3.0239    2.4649    1.4573 C   0  0  0  0  0  0  0  0  0  0  0  0
    3.9751    2.8510    1.8380 H   0  0  0  0  0  0  0  0  0  0  0  0
    2.8921    1.4345    1.8106 H   0  0  0  0  0  0  0  0  0  0  0  0
    2.2142    3.0795    1.8631 H   0  0  0  0  0  0  0  0  0  0  0  0
  2  3  3  0  0  0  0
  1  2  1  0  0  0  0
  5  6  1  0  0  0  0
  5  7  1  0  0  0  0
  5  8  1  0  0  0  0
  4  5  1  0  0  0  0
  1  4  1  0  0  0  0
  9 20  1  0  0  0  0
 10 11  1  0  0  0  0
 11 12  1  0  0  0  0
 13 11  2  0  0  0  0
 14 13  1  0  0  0  0
 15 13  1  0  0  0  0
 16 15  1  0  0  0  0
 17 15  2  0  0  0  0
 18 17  1  0  0  0  0
 19 10  2  0  0  0  0
 20 19  1  0  0  0  0
  9 21  1  0  0  0  0
 10 21  1  0  0  0  0
 17 19  1  0  0  0  0
  1 21  1  0  0  0  0
 23 22  1  0  0  0  0
 24 23  1  0  0  0  0
 25 23  2  0  0  0  0
 26 25  1  0  0  0  0
 27 25  1  0  0  0  0
 28 27  1  0  0  0  0
 29 27  2  0  0  0  0
 30 29  1  0  0  0  0
 31 22  2  0  0  0  0
 32 31  1  0  0  0  0
 29 31  1  0  0  0  0
 20 22  1  0  0  0  0
 34 33  1  0  0  0  0
 35 34  1  0  0  0  0
 36 34  2  0  0  0  0
 37 36  1  0  0  0  0
 38 36  1  0  0  0  0
 39 38  1  0  0  0  0
 40 38  2  0  0  0  0
 41 40  1  0  0  0  0
 42 33  2  0  0  0  0
 43 42  1  0  0  0  0
 40 42  1  0  0  0  0
 20 33  1  0  0  0  0
 44 47  1  0  0  0  0
 47 48  2  0  0  0  0
 45 48  1  0  0  0  0
 45 49  2  0  0  0  0
 46 49  1  0  0  0  0
 44 46  2  0  0  0  0
 48 52  1  0  0  0  0
 49 53  1  0  0  0  0
 45 54  1  0  0  0  0
 46 50  1  0  0  0  0
 47 51  1  0  0  0  0
  9 44  1  0  0  0  0
 56 57  1  0  0  0  0
 56 58  1  0  0  0  0
 56 59  1  0  0  0  0
 55 56  1  0  0  0  0
  1 55  1  0  0  0  0
M  END
> <PM6_ENERGY>
359.196

> <UID>
BMBIWKXCVHOQSH-QYLQNDENNA-M

> <FITNESS>
1.14393

> <GCODE>
2075

> <GraphENC>
2075 72_1_0,80_65_1,93_15_1,85_64_1,38070_30_1,37781_30_1,37773_36_1, 72_0_80_0_SINGLE_Xlig:0_Xlig:1,72_2_93_3_SINGLE_scaff:0_MIsoindolylidene:1,72_1_85_0_SINGLE_Xlig:0_Xlig:1,93_2_38070_0_SINGLE_LIsoindolylideneSubCS:0_LIsoindolylideneSubCS:1,93_1_37781_0_SINGLE_LIsoindolylideneSubCS:0_LIsoindolylideneSubCS:1,93_0_37773_0_SINGLE_LIsoindolylideneSubNL:0_SubArS:1, SymmetricSet [symIds=[38070, 37781]] 

> <GraphJson>
{
  "graphId": 2075,
  "gVertices": [
    {
      "lstAPs": [
        {
          "id": 51290,
          "atomPositionNumber": 0,
          "atomPositionNumberInMol": 0,
          "apClass": {
            "rule": "Xlig",
            "subClass": 0,
            "bndTyp": "SINGLE"
          },
          "dirVec": {
            "x": -2.3339,
            "y": -0.0087,
            "z": 0.8172
          }
        },
        {
          "id": 51291,
          "atomPositionNumber": 0,
          "atomPositionNumberInMol": 0,
          "apClass": {
            "rule": "Xlig",
            "subClass": 0,
            "bndTyp": "SINGLE"
          },
          "dirVec": {
            "x": 2.336,
            "y": -5.0E-4,
            "z": 0.829
          }
        },
        {
          "id": 51292,
          "atomPositionNumber": 0,
          "atomPositionNumberInMol": 0,
          "apClass": {
            "rule": "scaff",
            "subClass": 0,
            "bndTyp": "SINGLE"
          },
          "dirVec": {
            "x": -0.0095,
            "y": 0.0046,
            "z": -1.7113
          }
        }
      ],
      "lstSymAPs": [
        {
          "symIds": [
            0,
            1
          ]
        }
      ],
      "mol": {
        "atoms": [
          {
            "elSymbol": "Pt",
            "p3d": {
              "x": -0.0098,
              "y": 0.0049,
              "z": 0.6289
            }
          },
          {
            "elSymbol": "C",
            "p3d": {
              "x": -6.0E-4,
              "y": 0.0016,
              "z": 2.5609
            }
          },
          {
            "elSymbol": "O",
            "p3d": {
              "x": 0.0025,
              "y": -0.0041,
              "z": 3.6974
            }
          },
          {
            "elSymbol": "Du",
            "p3d": {
              "x": -0.007,
              "y": 1.0013,
              "z": 0.6372
            }
          },
          {
            "elSymbol": "Du",
            "p3d": {
              "x": -0.0014,
              "y": 0.9902,
              "z": 2.5698
            }
          }
        ],
        "bonds": [
          {
            "atomIds": [
              1,
              2
            ],
            "bo": "TRIPLE"
          },
          {
            "atomIds": [
              0,
              1
            ],
            "bo": "SINGLE"
          },
          {
            "atomIds": [
              3,
              0
            ],
            "bo": "SINGLE"
          },
          {
            "atomIds": [
              4,
              1
            ],
            "bo": "SINGLE"
          }
        ]
      },
      "vertexId": 72,
      "buildingBlockId": 0,
      "buildingBlockType": "SCAFFOLD",
      "isRCV": false,
      "properties": {
        "ATTACHMENT_POINTS": "1#Xlig:0:SINGLE:-2.3339%-0.0087%0.8172,Xlig:0:SINGLE:2.3360%-0.0005%0.8290,scaff:0:SINGLE:-0.0095%0.0046%-1.7113 "
      },
      "uniquefyingPropertyKeys": [],
      "allowedMutationTypes": [
        "DELETE",
        "EXTEND",
        "CHANGEBRANCH",
        "CHANGELINK",
        "ADDLINK",
        "DELETELINK",
        "DELETECHAIN"
      ],
      "vertexType": "MolecularFragment"
    },
    {
      "lstAPs": [
        {
          "id": 51293,
          "atomPositionNumber": 0,
          "atomPositionNumberInMol": 5,
          "apClass": {
            "rule": "Xlig",
            "subClass": 1,
            "bndTyp": "SINGLE"
          },
          "dirVec": {
            "x": -0.1753,
            "y": 0.0948,
            "z": -0.4464
          }
        }
      ],
      "lstSymAPs": [],
      "mol": {
        "atoms": [
          {
            "elSymbol": "O",
            "p3d": {
              "x": -0.3534,
              "y": 2.1044,
              "z": -0.7339
            }
          },
          {
            "elSymbol": "C",
            "p3d": {
              "x": -0.5345,
              "y": 2.7646,
              "z": 0.4801
            }
          },
          {
            "elSymbol": "H",
            "p3d": {
              "x": -0.3728,
              "y": 3.8337,
              "z": 0.2724
            }
          },
          {
            "elSymbol": "H",
            "p3d": {
              "x": 0.1816,
              "y": 2.4161,
              "z": 1.2384
            }
          },
          {
            "elSymbol": "H",
            "p3d": {
              "x": -1.553,
              "y": 2.6149,
              "z": 0.8489
            }
          }
        ],
        "bonds": [
          {
            "atomIds": [
              1,
              2
            ],
            "bo": "SINGLE"
          },
          {
            "atomIds": [
              1,
              3
            ],
            "bo": "SINGLE"
          },
          {
            "atomIds": [
              1,
              4
            ],
            "bo": "SINGLE"
          },
          {
            "atomIds": [
              0,
              1
            ],
            "bo": "SINGLE"
          }
        ]
      },
      "vertexId": 80,
      "buildingBlockId": 64,
      "buildingBlockType": "FRAGMENT",
      "isRCV": false,
      "properties": {
        "ATTACHMENT_POINTS": "1#Xlig:1:SINGLE:-0.1753%0.0948%-0.4464 "
      },
      "uniquefyingPropertyKeys": [],
      "allowedMutationTypes": [
        "DELETE",
        "EXTEND",
        "CHANGEBRANCH",
        "CHANGELINK",
        "ADDLINK",
        "DELETELINK",
        "DELETECHAIN"
      ],
      "vertexType": "MolecularFragment"
    },
    {
      "lstAPs": [
        {
          "id": 51294,
          "atomPositionNumber": 0,
          "atomPositionNumberInMol": 10,
          "apClass": {
            "rule": "LIsoindolylideneSubNL",
            "subClass": 0,
            "bndTyp": "SINGLE"
          },
          "dirVec": {
            "x": 8.2611,
            "y": 13.2699,
            "z": 19.2517
          }
        },
        {
          "id": 51295,
          "atomPositionNumber": 11,
          "atomPositionNumberInMol": 21,
          "apClass": {
            "rule": "LIsoindolylideneSubCS",
            "subClass": 0,
            "bndTyp": "SINGLE"
          },
          "dirVec": {
            "x": 8.8004,
            "y": 11.8294,
            "z": 16.2112
          }
        },
        {
          "id": 51296,
          "atomPositionNumber": 11,
          "atomPositionNumberInMol": 21,
          "apClass": {
            "rule": "LIsoindolylideneSubCS",
            "subClass": 0,
            "bndTyp": "SINGLE"
          },
          "dirVec": {
            "x": 9.9911,
            "y": 10.7246,
            "z": 18.2628
          }
        },
        {
          "id": 51297,
          "atomPositionNumber": 12,
          "atomPositionNumberInMol": 22,
          "apClass": {
            "rule": "MIsoindolylidene",
            "subClass": 1,
            "bndTyp": "SINGLE"
          },
          "dirVec": {
            "x": 10.5893,
            "y": 15.7982,
            "z": 19.2952
          }
        }
      ],
      "lstSymAPs": [
        {
          "symIds": [
            1,
            2
          ]
        }
      ],
      "mol": {
        "atoms": [
          {
            "elSymbol": "N",
            "p3d": {
              "x": 9.4489,
              "y": 13.1799,
              "z": 18.2942
            }
          },
          {
            "elSymbol": "C",
            "p3d": {
              "x": 11.4201,
              "y": 13.7017,
              "z": 17.3025
            }
          },
          {
            "elSymbol": "C",
            "p3d": {
              "x": 12.5951,
              "y": 14.339,
              "z": 16.9164
            }
          },
          {
            "elSymbol": "H",
            "p3d": {
              "x": 12.8733,
              "y": 15.3,
              "z": 17.3622
            }
          },
          {
            "elSymbol": "C",
            "p3d": {
              "x": 13.4411,
              "y": 13.7204,
              "z": 15.9914
            }
          },
          {
            "elSymbol": "H",
            "p3d": {
              "x": 14.3384,
              "y": 14.2201,
              "z": 15.6587
            }
          },
          {
            "elSymbol": "C",
            "p3d": {
              "x": 13.0993,
              "y": 12.4808,
              "z": 15.4917
            }
          },
          {
            "elSymbol": "H",
            "p3d": {
              "x": 13.7585,
              "y": 11.989,
              "z": 14.7813
            }
          },
          {
            "elSymbol": "C",
            "p3d": {
              "x": 11.9512,
              "y": 11.8214,
              "z": 15.8884
            }
          },
          {
            "elSymbol": "H",
            "p3d": {
              "x": 11.7213,
              "y": 10.8277,
              "z": 15.5012
            }
          },
          {
            "elSymbol": "C",
            "p3d": {
              "x": 11.1202,
              "y": 12.434,
              "z": 16.8015
            }
          },
          {
            "elSymbol": "C",
            "p3d": {
              "x": 9.7825,
              "y": 11.9664,
              "z": 17.3844
            }
          },
          {
            "elSymbol": "C",
            "p3d": {
              "x": 10.4002,
              "y": 14.1128,
              "z": 18.2438
            }
          }
        ],
        "bonds": [
          {
            "atomIds": [
              0,
              11
            ],
            "bo": "SINGLE"
          },
          {
            "atomIds": [
              1,
              2
            ],
            "bo": "SINGLE"
          },
          {
            "atomIds": [
              2,
              3
            ],
            "bo": "SINGLE"
          },
          {
            "atomIds": [
              4,
              2
            ],
            "bo": "DOUBLE"
          },
          {
            "atomIds": [
              5,
              4
            ],
            "bo": "SINGLE"
          },
          {
            "atomIds": [
              6,
              4
            ],
            "bo": "SINGLE"
          },
          {
            "atomIds": [
              7,
              6
            ],
            "bo": "SINGLE"
          },
          {
            "atomIds": [
              8,
              6
            ],
            "bo": "DOUBLE"
          },
          {
            "atomIds": [
              9,
              8
            ],
            "bo": "SINGLE"
          },
          {
            "atomIds": [
              10,
              1
            ],
            "bo": "DOUBLE"
          },
          {
            "atomIds": [
              11,
              10
            ],
            "bo": "SINGLE"
          },
          {
            "atomIds": [
              0,
              12
            ],
            "bo": "SINGLE"
          },
          {
            "atomIds": [
              1,
              12
            ],
            "bo": "SINGLE"
          },
          {
            "atomIds": [
              8,
              10
            ],
            "bo": "SINGLE"
          }
        ]
      },
      "vertexId": 93,
      "buildingBlockId": 14,
      "buildingBlockType": "FRAGMENT",
      "isRCV": false,
      "properties": {
        "ATTACHMENT_POINTS": "1#LIsoindolylideneSubNL:0:SINGLE:8.2611%13.2699%19.2517 12#LIsoindolylideneSubCS:0:SINGLE:8.8004%11.8294%16.2112,LIsoindolylideneSubCS:0:SINGLE:9.9911%10.7246%18.2628 13#MIsoindolylidene:1:SINGLE:10.5893%15.7982%19.2952 "
      },
      "uniquefyingPropertyKeys": [],
      "allowedMutationTypes": [
        "DELETE",
        "EXTEND",
        "CHANGEBRANCH",
        "CHANGELINK",
        "ADDLINK",
        "DELETELINK",
        "DELETECHAIN"
      ],
      "vertexType": "MolecularFragment"
    },
    {
      "lstAPs": [
        {
          "id": 51298,
          "atomPositionNumber": 0,
          "atomPositionNumberInMol": 56,
          "apClass": {
            "rule": "Xlig",
            "subClass": 1,
            "bndTyp": "SINGLE"
          },
          "dirVec": {
            "x": -0.102,
            "y": 0.0185,
            "z": -1.0265
          }
        }
      ],
      "lstSymAPs": [],
      "mol": {
        "atoms": [
          {
            "elSymbol": "S",
            "p3d": {
              "x": -0.3267,
              "y": 2.3403,
              "z": -1.0022
            }
          },
          {
            "elSymbol": "C",
            "p3d": {
              "x": -0.626,
              "y": 2.4866,
              "z": 0.7805
            }
          },
          {
            "elSymbol": "H",
            "p3d": {
              "x": 0.1766,
              "y": 3.089,
              "z": 1.2414
            }
          },
          {
            "elSymbol": "H",
            "p3d": {
              "x": -0.651,
              "y": 1.5065,
              "z": 1.2643
            }
          },
          {
            "elSymbol": "H",
            "p3d": {
              "x": -1.5658,
              "y": 2.981,
              "z": 0.9515
            }
          }
        ],
        "bonds": [
          {
            "atomIds": [
              1,
              2
            ],
            "bo": "SINGLE"
          },
          {
            "atomIds": [
              1,
              3
            ],
            "bo": "SINGLE"
          },
          {
            "atomIds": [
              1,
              4
            ],
            "bo": "SINGLE"
          },
          {
            "atomIds": [
              0,
              1
            ],
            "bo": "SINGLE"
          }
        ]
      },
      "vertexId": 85,
      "buildingBlockId": 63,
      "buildingBlockType": "FRAGMENT",
      "isRCV": false,
      "properties": {
        "ATTACHMENT_POINTS": "1#Xlig:1:SINGLE:-0.1020%0.0185%-1.0265 "
      },
      "uniquefyingPropertyKeys": [],
      "allowedMutationTypes": [
        "DELETE",
        "EXTEND",
        "CHANGEBRANCH",
        "CHANGELINK",
        "ADDLINK",
        "DELETELINK",
        "DELETECHAIN"
      ],
      "vertexType": "MolecularFragment"
    },
    {
      "lstAPs": [
        {
          "id": 51335,
          "atomPositionNumber": 0,
          "atomPositionNumberInMol": 23,
          "apClass": {
            "rule": "LIsoindolylideneSubCS",
            "subClass": 1,
            "bndTyp": "SINGLE"
          },
          "dirVec": {
            "x": 5.5795,
            "y": 5.9633,
            "z": -0.239
          }
        }
      ],
      "lstSymAPs": [],
      "mol": {
        "atoms": [
          {
            "elSymbol": "C",
            "p3d": {
              "x": 6.4615,
              "y": 7.1721,
              "z": 0.1839
            }
          },
          {
            "elSymbol": "C",
            "p3d": {
              "x": 7.081,
              "y": 7.1629,
              "z": 1.4436
            }
          },
          {
            "elSymbol": "H",
            "p3d": {
              "x": 7.0505,
              "y": 6.276,
              "z": 2.048
            }
          },
          {
            "elSymbol": "C",
            "p3d": {
              "x": 7.7838,
              "y": 8.284,
              "z": 1.8843
            }
          },
          {
            "elSymbol": "H",
            "p3d": {
              "x": 8.252,
              "y": 8.2646,
              "z": 2.8494
            }
          },
          {
            "elSymbol": "C",
            "p3d": {
              "x": 7.8546,
              "y": 9.4183,
              "z": 1.0991
            }
          },
          {
            "elSymbol": "H",
            "p3d": {
              "x": 8.4264,
              "y": 10.2812,
              "z": 1.4367
            }
          },
          {
            "elSymbol": "C",
            "p3d": {
              "x": 7.1986,
              "y": 9.4546,
              "z": -0.132
            }
          },
          {
            "elSymbol": "H",
            "p3d": {
              "x": 7.2285,
              "y": 10.3561,
              "z": -0.7414
            }
          },
          {
            "elSymbol": "C",
            "p3d": {
              "x": 6.4815,
              "y": 8.3462,
              "z": -0.5635
            }
          },
          {
            "elSymbol": "H",
            "p3d": {
              "x": 5.9344,
              "y": 8.3796,
              "z": -1.5229
            }
          }
        ],
        "bonds": [
          {
            "atomIds": [
              1,
              0
            ],
            "bo": "SINGLE"
          },
          {
            "atomIds": [
              2,
              1
            ],
            "bo": "SINGLE"
          },
          {
            "atomIds": [
              3,
              1
            ],
            "bo": "DOUBLE"
          },
          {
            "atomIds": [
              4,
              3
            ],
            "bo": "SINGLE"
          },
          {
            "atomIds": [
              5,
              3
            ],
            "bo": "SINGLE"
          },
          {
            "atomIds": [
              6,
              5
            ],
            "bo": "SINGLE"
          },
          {
            "atomIds": [
              7,
              5
            ],
            "bo": "DOUBLE"
          },
          {
            "atomIds": [
              8,
              7
            ],
            "bo": "SINGLE"
          },
          {
            "atomIds": [
              9,
              0
            ],
            "bo": "DOUBLE"
          },
          {
            "atomIds": [
              10,
              9
            ],
            "bo": "SINGLE"
          },
          {
            "atomIds": [
              7,
              9
            ],
            "bo": "SINGLE"
          }
        ]
      },
      "vertexId": 38070,
      "buildingBlockId": 29,
      "buildingBlockType": "FRAGMENT",
      "isRCV": false,
      "properties": {
        "ATTACHMENT_POINTS": "1#LIsoindolylideneSubCS:1:SINGLE:5.5795%5.9633%-0.2390 "
      },
      "uniquefyingPropertyKeys": [],
      "allowedMutationTypes": [
        "DELETE",
        "EXTEND",
        "CHANGEBRANCH",
        "CHANGELINK",
        "ADDLINK",
        "DELETELINK",
        "DELETECHAIN"
      ],
      "vertexType": "MolecularFragment"
    },
    {
      "lstAPs": [
        {
          "id": 51336,
          "atomPositionNumber": 0,
          "atomPositionNumberInMol": 34,
          "apClass": {
            "rule": "LIsoindolylideneSubCS",
            "subClass": 1,
            "bndTyp": "SINGLE"
          },
          "dirVec": {
            "x": 5.5795,
            "y": 5.9633,
            "z": -0.239
          }
        }
      ],
      "lstSymAPs": [],
      "mol": {
        "atoms": [
          {
            "elSymbol": "C",
            "p3d": {
              "x": 6.4615,
              "y": 7.1721,
              "z": 0.1839
            }
          },
          {
            "elSymbol": "C",
            "p3d": {
              "x": 7.081,
              "y": 7.1629,
              "z": 1.4436
            }
          },
          {
            "elSymbol": "H",
            "p3d": {
              "x": 7.0505,
              "y": 6.276,
              "z": 2.048
            }
          },
          {
            "elSymbol": "C",
            "p3d": {
              "x": 7.7838,
              "y": 8.284,
              "z": 1.8843
            }
          },
          {
            "elSymbol": "H",
            "p3d": {
              "x": 8.252,
              "y": 8.2646,
              "z": 2.8494
            }
          },
          {
            "elSymbol": "C",
            "p3d": {
              "x": 7.8546,
              "y": 9.4183,
              "z": 1.0991
            }
          },
          {
            "elSymbol": "H",
            "p3d": {
              "x": 8.4264,
              "y": 10.2812,
              "z": 1.4367
            }
          },
          {
            "elSymbol": "C",
            "p3d": {
              "x": 7.1986,
              "y": 9.4546,
              "z": -0.132
            }
          },
          {
            "elSymbol": "H",
            "p3d": {
              "x": 7.2285,
              "y": 10.3561,
              "z": -0.7414
            }
          },
          {
            "elSymbol": "C",
            "p3d": {
              "x": 6.4815,
              "y": 8.3462,
              "z": -0.5635
            }
          },
          {
            "elSymbol": "H",
            "p3d": {
              "x": 5.9344,
              "y": 8.3796,
              "z": -1.5229
            }
          }
        ],
        "bonds": [
          {
            "atomIds": [
              1,
              0
            ],
            "bo": "SINGLE"
          },
          {
            "atomIds": [
              2,
              1
            ],
            "bo": "SINGLE"
          },
          {
            "atomIds": [
              3,
              1
            ],
            "bo": "DOUBLE"
          },
          {
            "atomIds": [
              4,
              3
            ],
            "bo": "SINGLE"
          },
          {
            "atomIds": [
              5,
              3
            ],
            "bo": "SINGLE"
          },
          {
            "atomIds": [
              6,
              5
            ],
            "bo": "SINGLE"
          },
          {
            "atomIds": [
              7,
              5
            ],
            "bo": "DOUBLE"
          },
          {
            "atomIds": [
              8,
              7
            ],
            "bo": "SINGLE"
          },
          {
            "atomIds": [
              9,
              0
            ],
            "bo": "DOUBLE"
          },
          {
            "atomIds": [
              10,
              9
            ],
            "bo": "SINGLE"
          },
          {
            "atomIds": [
              7,
              9
            ],
            "bo": "SINGLE"
          }
        ]
      },
      "vertexId": 37781,
      "buildingBlockId": 29,
      "buildingBlockType": "FRAGMENT",
      "isRCV": false,
      "properties": {
        "ATTACHMENT_POINTS": "1#LIsoindolylideneSubCS:1:SINGLE:5.5795%5.9633%-0.2390 "
      },
      "uniquefyingPropertyKeys": [],
      "allowedMutationTypes": [
        "DELETE",
        "EXTEND",
        "CHANGEBRANCH",
        "CHANGELINK",
        "ADDLINK",
        "DELETELINK",
        "DELETECHAIN"
      ],
      "vertexType": "MolecularFragment"
    },
    {
      "lstAPs": [
        {
          "id": 51337,
          "atomPositionNumber": 0,
          "atomPositionNumberInMol": 45,
          "apClass": {
            "rule": "SubArS",
            "subClass": 1,
            "bndTyp": "SINGLE"
          },
          "dirVec": {
            "x": 0.2973,
            "y": 0.3873,
            "z": -0.6389
          }
        }
      ],
      "lstSymAPs": [],
      "mol": {
        "atoms": [
          {
            "elSymbol": "C",
            "p3d": {
              "x": 1.6995,
              "y": 0.5593,
              "z": -1.2083
            }
          },
          {
            "elSymbol": "C",
            "p3d": {
              "x": 4.2563,
              "y": 0.8754,
              "z": -2.2592
            }
          },
          {
            "elSymbol": "C",
            "p3d": {
              "x": 2.3334,
              "y": 1.79,
              "z": -1.1338
            }
          },
          {
            "elSymbol": "C",
            "p3d": {
              "x": 2.3422,
              "y": -0.5107,
              "z": -1.8125
            }
          },
          {
            "elSymbol": "C",
            "p3d": {
              "x": 3.612,
              "y": -0.3527,
              "z": -2.3321
            }
          },
          {
            "elSymbol": "C",
            "p3d": {
              "x": 3.6062,
              "y": 1.9513,
              "z": -1.6526
            }
          },
          {
            "elSymbol": "H",
            "p3d": {
              "x": 1.833,
              "y": 2.6461,
              "z": -0.6488
            }
          },
          {
            "elSymbol": "H",
            "p3d": {
              "x": 1.8361,
              "y": -1.4773,
              "z": -1.887
            }
          },
          {
            "elSymbol": "H",
            "p3d": {
              "x": 4.115,
              "y": -1.2043,
              "z": -2.8152
            }
          },
          {
            "elSymbol": "H",
            "p3d": {
              "x": 4.1097,
              "y": 2.9214,
              "z": -1.5842
            }
          },
          {
            "elSymbol": "H",
            "p3d": {
              "x": 5.2498,
              "y": 0.9926,
              "z": -2.665
            }
          }
        ],
        "bonds": [
          {
            "atomIds": [
              0,
              3
            ],
            "bo": "SINGLE"
          },
          {
            "atomIds": [
              3,
              4
            ],
            "bo": "DOUBLE"
          },
          {
            "atomIds": [
              1,
              4
            ],
            "bo": "SINGLE"
          },
          {
            "atomIds": [
              1,
              5
            ],
            "bo": "DOUBLE"
          },
          {
            "atomIds": [
              2,
              5
            ],
            "bo": "SINGLE"
          },
          {
            "atomIds": [
              0,
              2
            ],
            "bo": "DOUBLE"
          },
          {
            "atomIds": [
              4,
              8
            ],
            "bo": "SINGLE"
          },
          {
            "atomIds": [
              5,
              9
            ],
            "bo": "SINGLE"
          },
          {
            "atomIds": [
              1,
              10
            ],
            "bo": "SINGLE"
          },
          {
            "atomIds": [
              2,
              6
            ],
            "bo": "SINGLE"
          },
          {
            "atomIds": [
              3,
              7
            ],
            "bo": "SINGLE"
          }
        ]
      },
      "vertexId": 37773,
      "buildingBlockId": 35,
      "buildingBlockType": "FRAGMENT",
      "isRCV": false,
      "properties": {
        "ATTACHMENT_POINTS": "1#SubArS:1:SINGLE:0.2973%0.3873%-0.6389 "
      },
      "uniquefyingPropertyKeys": [],
      "allowedMutationTypes": [
        "DELETE",
        "EXTEND",
        "CHANGEBRANCH",
        "CHANGELINK",
        "ADDLINK",
        "DELETELINK",
        "DELETECHAIN"
      ],
      "vertexType": "MolecularFragment"
    }
  ],
  "gEdges": [
    {
      "srcAPID": 51290,
      "trgAPID": 51293,
      "bondType": "SINGLE"
    },
    {
      "srcAPID": 51292,
      "trgAPID": 51297,
      "bondType": "SINGLE"
    },
    {
      "srcAPID": 51291,
      "trgAPID": 51298,
      "bondType": "SINGLE"
    },
    {
      "srcAPID": 51296,
      "trgAPID": 51335,
      "bondType": "SINGLE"
    },
    {
      "srcAPID": 51295,
      "trgAPID": 51336,
      "bondType": "SINGLE"
    },
    {
      "srcAPID": 51294,
      "trgAPID": 51337,
      "bondType": "SINGLE"
    }
  ],
  "gRings": [],
  "symVertices": [
    {
      "symIds": [
        38070,
        37781
      ]
    }
  ]
}

> <SMILES>
[Pt](C#O)(OC([H])([H])[H])([C]1N(C(C2=C1C([H])=C([H])C([H])=C2[H])(C=3C([H])=C([H])C([H])=C([H])C3[H])C=4C([H])=C([H])C([H])=C([H])C4[H])C=5C(=C(C(=C(C5[H])[H])[H])[H])[H])SC([H])([H])[H]

$$$$
