M00001584
  CDK     04222209133D

 43 44  0  0  0  0  0  0  0  0999 V2000
   -2.3890    0.4943   -0.0559 Pt  0  0  0  0  0  0  0  0  0  0  0  0
   -4.2856    0.9391   -0.1547 C   0  0  0  0  0  0  0  0  0  0  0  0
   -5.3925    1.2088   -0.2283 O   0  0  0  0  0  0  0  0  0  0  0  0
   -2.2661    2.2260    1.5198 S   0  0  0  0  0  0  0  0  0  0  0  0
   -2.6920    1.1829    2.9459 C   0  0  0  0  0  0  0  0  0  0  0  0
   -1.8903    1.2211    3.6898 H   0  0  0  0  0  0  0  0  0  0  0  0
   -2.8527    0.1424    2.6413 H   0  0  0  0  0  0  0  0  0  0  0  0
   -3.6096    1.5584    3.4140 H   0  0  0  0  0  0  0  0  0  0  0  0
   -0.1384    0.0533   -0.0196 P   0  0  0  0  0  0  0  0  0  0  0  0
    0.3074   -1.6577   -0.6728 C   0  0  0  0  0  0  0  0  0  0  0  0
   -0.1202   -2.4306   -0.0012 H   0  0  0  0  0  0  0  0  0  0  0  0
   -0.2167   -1.8019   -1.6496 H   0  0  0  0  0  0  0  0  0  0  0  0
    2.0620   -0.2456    1.7694 C   0  0  0  0  0  0  0  0  0  0  0  0
    2.7173    0.1911    0.9825 H   0  0  0  0  0  0  0  0  0  0  0  0
    2.5025    0.1165    2.7248 H   0  0  0  0  0  0  0  0  0  0  0  0
    2.1379   -1.7790    1.7434 C   0  0  0  0  0  0  0  0  0  0  0  0
    2.8717   -2.1146    2.5059 H   0  0  0  0  0  0  0  0  0  0  0  0
    1.1753   -2.2176    2.0728 H   0  0  0  0  0  0  0  0  0  0  0  0
    1.8081   -1.8532   -0.8466 C   0  0  0  0  0  0  0  0  0  0  0  0
    2.3078   -0.9350   -1.2169 H   0  0  0  0  0  0  0  0  0  0  0  0
    1.9643   -2.5871   -1.6706 H   0  0  0  0  0  0  0  0  0  0  0  0
    2.5449   -2.3812    0.3937 C   0  0  0  0  0  0  0  0  0  0  0  0
    2.4059   -3.4810    0.4526 H   0  0  0  0  0  0  0  0  0  0  0  0
    3.6332   -2.2307    0.2408 H   0  0  0  0  0  0  0  0  0  0  0  0
    0.6399    0.2967    1.6775 C   0  0  0  0  0  0  0  0  0  0  0  0
    0.6178    1.3867    1.9181 H   0  0  0  0  0  0  0  0  0  0  0  0
   -0.0098   -0.1730    2.4469 H   0  0  0  0  0  0  0  0  0  0  0  0
    0.5826    1.3099   -1.1696 C   0  0  0  0  0  0  0  0  0  0  0  0
    1.5454    3.2207   -2.9443 C   0  0  0  0  0  0  0  0  0  0  0  0
    1.9324    1.6617   -1.1294 C   0  0  0  0  0  0  0  0  0  0  0  0
   -0.2998    1.9097   -2.0716 C   0  0  0  0  0  0  0  0  0  0  0  0
    0.1928    2.8692   -2.9664 C   0  0  0  0  0  0  0  0  0  0  0  0
    2.4147    2.6210   -2.0254 C   0  0  0  0  0  0  0  0  0  0  0  0
    2.6222    1.2105   -0.4064 H   0  0  0  0  0  0  0  0  0  0  0  0
   -1.3712    1.6577   -2.0988 H   0  0  0  0  0  0  0  0  0  0  0  0
   -0.4835    3.3441   -3.6769 H   0  0  0  0  0  0  0  0  0  0  0  0
    3.4654    2.9054   -2.0063 H   0  0  0  0  0  0  0  0  0  0  0  0
    1.9242    3.9681   -3.6418 H   0  0  0  0  0  0  0  0  0  0  0  0
   -2.9657   -1.1522   -1.6239 S   0  0  0  0  0  0  0  0  0  0  0  0
   -3.2922   -2.4567   -0.4017 C   0  0  0  0  0  0  0  0  0  0  0  0
   -4.3095   -2.8411   -0.5412 H   0  0  0  0  0  0  0  0  0  0  0  0
   -3.1994   -2.0711    0.6201 H   0  0  0  0  0  0  0  0  0  0  0  0
   -2.5914   -3.2857   -0.5396 H   0  0  0  0  0  0  0  0  0  0  0  0
  2  3  3  0  0  0  0
  1  2  1  0  0  0  0
  5  6  1  0  0  0  0
  5  7  1  0  0  0  0
  5  8  1  0  0  0  0
  4  5  1  0  0  0  0
  1  4  1  0  0  0  0
 10  9  1  0  0  0  0
 11 10  1  0  0  0  0
 12 10  1  0  0  0  0
 13 14  1  0  0  0  0
 13 25  1  0  0  0  0
 15 13  1  0  0  0  0
 16 13  1  0  0  0  0
 17 16  1  0  0  0  0
 18 16  1  0  0  0  0
 19 10  1  0  0  0  0
 19 22  1  0  0  0  0
 20 19  1  0  0  0  0
 21 19  1  0  0  0  0
 22 16  1  0  0  0  0
 23 22  1  0  0  0  0
 24 22  1  0  0  0  0
 25  9  1  0  0  0  0
 26 25  1  0  0  0  0
 27 25  1  0  0  0  0
  1  9  1  0  0  0  0
 28 31  1  0  0  0  0
 31 32  2  0  0  0  0
 29 32  1  0  0  0  0
 29 33  2  0  0  0  0
 30 33  1  0  0  0  0
 28 30  2  0  0  0  0
 32 36  1  0  0  0  0
 33 37  1  0  0  0  0
 29 38  1  0  0  0  0
 30 34  1  0  0  0  0
 31 35  1  0  0  0  0
  9 28  1  0  0  0  0
 40 41  1  0  0  0  0
 40 42  1  0  0  0  0
 40 43  1  0  0  0  0
 39 40  1  0  0  0  0
  1 39  1  0  0  0  0
M  END
> <PM6_ENERGY>
-130.285

> <UID>
UGXWUXXWNMQSDA-WHTDRVNANA-L

> <FITNESS>
1.14166

> <GCODE>
2195

> <GraphENC>
2195 72_1_0,79_64_1,103_41_1,85_64_1,40584_36_1, 72_0_79_0_SINGLE_Xlig:0_Xlig:1,72_2_103_1_SINGLE_scaff:0_MPhosphine:1,72_1_85_0_SINGLE_Xlig:0_Xlig:1,103_0_40584_0_SINGLE_LPhosphineSubM:0_SubArS:1, 

> <GraphJson>
{
  "graphId": 2195,
  "gVertices": [
    {
      "lstAPs": [
        {
          "id": 54538,
          "atomPositionNumber": 0,
          "atomPositionNumberInMol": 0,
          "apClass": {
            "rule": "Xlig",
            "subClass": 0,
            "bndTyp": "SINGLE"
          },
          "dirVec": {
            "x": -2.3339,
            "y": -0.0087,
            "z": 0.8172
          }
        },
        {
          "id": 54539,
          "atomPositionNumber": 0,
          "atomPositionNumberInMol": 0,
          "apClass": {
            "rule": "Xlig",
            "subClass": 0,
            "bndTyp": "SINGLE"
          },
          "dirVec": {
            "x": 2.336,
            "y": -5.0E-4,
            "z": 0.829
          }
        },
        {
          "id": 54540,
          "atomPositionNumber": 0,
          "atomPositionNumberInMol": 0,
          "apClass": {
            "rule": "scaff",
            "subClass": 0,
            "bndTyp": "SINGLE"
          },
          "dirVec": {
            "x": -0.0095,
            "y": 0.0046,
            "z": -1.7113
          }
        }
      ],
      "lstSymAPs": [
        {
          "symIds": [
            0,
            1
          ]
        }
      ],
      "mol": {
        "atoms": [
          {
            "elSymbol": "Pt",
            "p3d": {
              "x": -0.0098,
              "y": 0.0049,
              "z": 0.6289
            }
          },
          {
            "elSymbol": "C",
            "p3d": {
              "x": -6.0E-4,
              "y": 0.0016,
              "z": 2.5609
            }
          },
          {
            "elSymbol": "O",
            "p3d": {
              "x": 0.0025,
              "y": -0.0041,
              "z": 3.6974
            }
          },
          {
            "elSymbol": "Du",
            "p3d": {
              "x": -0.007,
              "y": 1.0013,
              "z": 0.6372
            }
          },
          {
            "elSymbol": "Du",
            "p3d": {
              "x": -0.0014,
              "y": 0.9902,
              "z": 2.5698
            }
          }
        ],
        "bonds": [
          {
            "atomIds": [
              1,
              2
            ],
            "bo": "TRIPLE"
          },
          {
            "atomIds": [
              0,
              1
            ],
            "bo": "SINGLE"
          },
          {
            "atomIds": [
              3,
              0
            ],
            "bo": "SINGLE"
          },
          {
            "atomIds": [
              4,
              1
            ],
            "bo": "SINGLE"
          }
        ]
      },
      "vertexId": 72,
      "buildingBlockId": 0,
      "buildingBlockType": "SCAFFOLD",
      "isRCV": false,
      "properties": {
        "ATTACHMENT_POINTS": "1#Xlig:0:SINGLE:-2.3339%-0.0087%0.8172,Xlig:0:SINGLE:2.3360%-0.0005%0.8290,scaff:0:SINGLE:-0.0095%0.0046%-1.7113 "
      },
      "uniquefyingPropertyKeys": [],
      "allowedMutationTypes": [
        "DELETE",
        "EXTEND",
        "CHANGEBRANCH",
        "CHANGELINK",
        "ADDLINK",
        "DELETELINK",
        "DELETECHAIN"
      ],
      "vertexType": "MolecularFragment"
    },
    {
      "lstAPs": [
        {
          "id": 54541,
          "atomPositionNumber": 0,
          "atomPositionNumberInMol": 5,
          "apClass": {
            "rule": "Xlig",
            "subClass": 1,
            "bndTyp": "SINGLE"
          },
          "dirVec": {
            "x": -0.102,
            "y": 0.0185,
            "z": -1.0265
          }
        }
      ],
      "lstSymAPs": [],
      "mol": {
        "atoms": [
          {
            "elSymbol": "S",
            "p3d": {
              "x": -0.3267,
              "y": 2.3403,
              "z": -1.0022
            }
          },
          {
            "elSymbol": "C",
            "p3d": {
              "x": -0.626,
              "y": 2.4866,
              "z": 0.7805
            }
          },
          {
            "elSymbol": "H",
            "p3d": {
              "x": 0.1766,
              "y": 3.089,
              "z": 1.2414
            }
          },
          {
            "elSymbol": "H",
            "p3d": {
              "x": -0.651,
              "y": 1.5065,
              "z": 1.2643
            }
          },
          {
            "elSymbol": "H",
            "p3d": {
              "x": -1.5658,
              "y": 2.981,
              "z": 0.9515
            }
          }
        ],
        "bonds": [
          {
            "atomIds": [
              1,
              2
            ],
            "bo": "SINGLE"
          },
          {
            "atomIds": [
              1,
              3
            ],
            "bo": "SINGLE"
          },
          {
            "atomIds": [
              1,
              4
            ],
            "bo": "SINGLE"
          },
          {
            "atomIds": [
              0,
              1
            ],
            "bo": "SINGLE"
          }
        ]
      },
      "vertexId": 79,
      "buildingBlockId": 63,
      "buildingBlockType": "FRAGMENT",
      "isRCV": false,
      "properties": {
        "ATTACHMENT_POINTS": "1#Xlig:1:SINGLE:-0.1020%0.0185%-1.0265 "
      },
      "uniquefyingPropertyKeys": [],
      "allowedMutationTypes": [
        "DELETE",
        "EXTEND",
        "CHANGEBRANCH",
        "CHANGELINK",
        "ADDLINK",
        "DELETELINK",
        "DELETECHAIN"
      ],
      "vertexType": "MolecularFragment"
    },
    {
      "lstAPs": [
        {
          "id": 54542,
          "atomPositionNumber": 0,
          "atomPositionNumberInMol": 10,
          "apClass": {
            "rule": "LPhosphineSubM",
            "subClass": 0,
            "bndTyp": "SINGLE"
          },
          "dirVec": {
            "x": 10.5741,
            "y": 2.388,
            "z": 3.5052
          }
        },
        {
          "id": 54543,
          "atomPositionNumber": 0,
          "atomPositionNumberInMol": 10,
          "apClass": {
            "rule": "MPhosphine",
            "subClass": 1,
            "bndTyp": "SINGLE"
          },
          "dirVec": {
            "x": 9.1744,
            "y": 5.4814,
            "z": 2.7926
          }
        }
      ],
      "lstSymAPs": [],
      "mol": {
        "atoms": [
          {
            "elSymbol": "P",
            "p3d": {
              "x": 10.8769,
              "y": 4.0494,
              "z": 2.7954
            }
          },
          {
            "elSymbol": "C",
            "p3d": {
              "x": 12.1798,
              "y": 4.6169,
              "z": 3.946
            }
          },
          {
            "elSymbol": "H",
            "p3d": {
              "x": 12.4917,
              "y": 5.6265,
              "z": 3.6448
            }
          },
          {
            "elSymbol": "H",
            "p3d": {
              "x": 11.7572,
              "y": 4.6829,
              "z": 4.9359
            }
          },
          {
            "elSymbol": "C",
            "p3d": {
              "x": 13.105,
              "y": 3.3948,
              "z": 1.0043
            }
          },
          {
            "elSymbol": "H",
            "p3d": {
              "x": 13.2476,
              "y": 2.4369,
              "z": 1.512
            }
          },
          {
            "elSymbol": "H",
            "p3d": {
              "x": 13.3426,
              "y": 3.2455,
              "z": -0.0523
            }
          },
          {
            "elSymbol": "C",
            "p3d": {
              "x": 14.0865,
              "y": 4.4359,
              "z": 1.5921
            }
          },
          {
            "elSymbol": "H",
            "p3d": {
              "x": 14.9506,
              "y": 4.4888,
              "z": 0.9474
            }
          },
          {
            "elSymbol": "H",
            "p3d": {
              "x": 13.5947,
              "y": 5.412,
              "z": 1.5613
            }
          },
          {
            "elSymbol": "C",
            "p3d": {
              "x": 13.4292,
              "y": 3.7407,
              "z": 4.0211
            }
          },
          {
            "elSymbol": "H",
            "p3d": {
              "x": 13.1512,
              "y": 2.7042,
              "z": 3.8217
            }
          },
          {
            "elSymbol": "H",
            "p3d": {
              "x": 13.8508,
              "y": 3.7903,
              "z": 5.0209
            }
          },
          {
            "elSymbol": "C",
            "p3d": {
              "x": 14.5313,
              "y": 4.1509,
              "z": 3.0247
            }
          },
          {
            "elSymbol": "H",
            "p3d": {
              "x": 15.0393,
              "y": 5.0334,
              "z": 3.3968
            }
          },
          {
            "elSymbol": "H",
            "p3d": {
              "x": 15.284,
              "y": 3.3564,
              "z": 2.9969
            }
          },
          {
            "elSymbol": "C",
            "p3d": {
              "x": 11.628,
              "y": 3.8158,
              "z": 1.119
            }
          },
          {
            "elSymbol": "H",
            "p3d": {
              "x": 11.0357,
              "y": 3.0492,
              "z": 0.6032
            }
          },
          {
            "elSymbol": "H",
            "p3d": {
              "x": 11.5015,
              "y": 4.7365,
              "z": 0.5787
            }
          }
        ],
        "bonds": [
          {
            "atomIds": [
              1,
              0
            ],
            "bo": "SINGLE"
          },
          {
            "atomIds": [
              2,
              1
            ],
            "bo": "SINGLE"
          },
          {
            "atomIds": [
              3,
              1
            ],
            "bo": "SINGLE"
          },
          {
            "atomIds": [
              4,
              5
            ],
            "bo": "SINGLE"
          },
          {
            "atomIds": [
              4,
              16
            ],
            "bo": "SINGLE"
          },
          {
            "atomIds": [
              6,
              4
            ],
            "bo": "SINGLE"
          },
          {
            "atomIds": [
              7,
              4
            ],
            "bo": "SINGLE"
          },
          {
            "atomIds": [
              8,
              7
            ],
            "bo": "SINGLE"
          },
          {
            "atomIds": [
              9,
              7
            ],
            "bo": "SINGLE"
          },
          {
            "atomIds": [
              10,
              1
            ],
            "bo": "SINGLE"
          },
          {
            "atomIds": [
              10,
              13
            ],
            "bo": "SINGLE"
          },
          {
            "atomIds": [
              11,
              10
            ],
            "bo": "SINGLE"
          },
          {
            "atomIds": [
              12,
              10
            ],
            "bo": "SINGLE"
          },
          {
            "atomIds": [
              13,
              7
            ],
            "bo": "SINGLE"
          },
          {
            "atomIds": [
              14,
              13
            ],
            "bo": "SINGLE"
          },
          {
            "atomIds": [
              15,
              13
            ],
            "bo": "SINGLE"
          },
          {
            "atomIds": [
              16,
              0
            ],
            "bo": "SINGLE"
          },
          {
            "atomIds": [
              17,
              16
            ],
            "bo": "SINGLE"
          },
          {
            "atomIds": [
              18,
              16
            ],
            "bo": "SINGLE"
          }
        ]
      },
      "vertexId": 103,
      "buildingBlockId": 40,
      "buildingBlockType": "FRAGMENT",
      "isRCV": false,
      "properties": {
        "ATTACHMENT_POINTS": "1#LPhosphineSubM:0:SINGLE:10.5741%2.3880%3.5052,MPhosphine:1:SINGLE:9.1744%5.4814%2.7926 "
      },
      "uniquefyingPropertyKeys": [],
      "allowedMutationTypes": [
        "DELETE",
        "EXTEND",
        "CHANGEBRANCH",
        "CHANGELINK",
        "ADDLINK",
        "DELETELINK",
        "DELETECHAIN"
      ],
      "vertexType": "MolecularFragment"
    },
    {
      "lstAPs": [
        {
          "id": 54544,
          "atomPositionNumber": 0,
          "atomPositionNumberInMol": 40,
          "apClass": {
            "rule": "Xlig",
            "subClass": 1,
            "bndTyp": "SINGLE"
          },
          "dirVec": {
            "x": -0.102,
            "y": 0.0185,
            "z": -1.0265
          }
        }
      ],
      "lstSymAPs": [],
      "mol": {
        "atoms": [
          {
            "elSymbol": "S",
            "p3d": {
              "x": -0.3267,
              "y": 2.3403,
              "z": -1.0022
            }
          },
          {
            "elSymbol": "C",
            "p3d": {
              "x": -0.626,
              "y": 2.4866,
              "z": 0.7805
            }
          },
          {
            "elSymbol": "H",
            "p3d": {
              "x": 0.1766,
              "y": 3.089,
              "z": 1.2414
            }
          },
          {
            "elSymbol": "H",
            "p3d": {
              "x": -0.651,
              "y": 1.5065,
              "z": 1.2643
            }
          },
          {
            "elSymbol": "H",
            "p3d": {
              "x": -1.5658,
              "y": 2.981,
              "z": 0.9515
            }
          }
        ],
        "bonds": [
          {
            "atomIds": [
              1,
              2
            ],
            "bo": "SINGLE"
          },
          {
            "atomIds": [
              1,
              3
            ],
            "bo": "SINGLE"
          },
          {
            "atomIds": [
              1,
              4
            ],
            "bo": "SINGLE"
          },
          {
            "atomIds": [
              0,
              1
            ],
            "bo": "SINGLE"
          }
        ]
      },
      "vertexId": 85,
      "buildingBlockId": 63,
      "buildingBlockType": "FRAGMENT",
      "isRCV": false,
      "properties": {
        "ATTACHMENT_POINTS": "1#Xlig:1:SINGLE:-0.1020%0.0185%-1.0265 "
      },
      "uniquefyingPropertyKeys": [],
      "allowedMutationTypes": [
        "DELETE",
        "EXTEND",
        "CHANGEBRANCH",
        "CHANGELINK",
        "ADDLINK",
        "DELETELINK",
        "DELETECHAIN"
      ],
      "vertexType": "MolecularFragment"
    },
    {
      "lstAPs": [
        {
          "id": 54569,
          "atomPositionNumber": 0,
          "atomPositionNumberInMol": 29,
          "apClass": {
            "rule": "SubArS",
            "subClass": 1,
            "bndTyp": "SINGLE"
          },
          "dirVec": {
            "x": 0.2973,
            "y": 0.3873,
            "z": -0.6389
          }
        }
      ],
      "lstSymAPs": [],
      "mol": {
        "atoms": [
          {
            "elSymbol": "C",
            "p3d": {
              "x": 1.6995,
              "y": 0.5593,
              "z": -1.2083
            }
          },
          {
            "elSymbol": "C",
            "p3d": {
              "x": 4.2563,
              "y": 0.8754,
              "z": -2.2592
            }
          },
          {
            "elSymbol": "C",
            "p3d": {
              "x": 2.3334,
              "y": 1.79,
              "z": -1.1338
            }
          },
          {
            "elSymbol": "C",
            "p3d": {
              "x": 2.3422,
              "y": -0.5107,
              "z": -1.8125
            }
          },
          {
            "elSymbol": "C",
            "p3d": {
              "x": 3.612,
              "y": -0.3527,
              "z": -2.3321
            }
          },
          {
            "elSymbol": "C",
            "p3d": {
              "x": 3.6062,
              "y": 1.9513,
              "z": -1.6526
            }
          },
          {
            "elSymbol": "H",
            "p3d": {
              "x": 1.833,
              "y": 2.6461,
              "z": -0.6488
            }
          },
          {
            "elSymbol": "H",
            "p3d": {
              "x": 1.8361,
              "y": -1.4773,
              "z": -1.887
            }
          },
          {
            "elSymbol": "H",
            "p3d": {
              "x": 4.115,
              "y": -1.2043,
              "z": -2.8152
            }
          },
          {
            "elSymbol": "H",
            "p3d": {
              "x": 4.1097,
              "y": 2.9214,
              "z": -1.5842
            }
          },
          {
            "elSymbol": "H",
            "p3d": {
              "x": 5.2498,
              "y": 0.9926,
              "z": -2.665
            }
          }
        ],
        "bonds": [
          {
            "atomIds": [
              0,
              3
            ],
            "bo": "SINGLE"
          },
          {
            "atomIds": [
              3,
              4
            ],
            "bo": "DOUBLE"
          },
          {
            "atomIds": [
              1,
              4
            ],
            "bo": "SINGLE"
          },
          {
            "atomIds": [
              1,
              5
            ],
            "bo": "DOUBLE"
          },
          {
            "atomIds": [
              2,
              5
            ],
            "bo": "SINGLE"
          },
          {
            "atomIds": [
              0,
              2
            ],
            "bo": "DOUBLE"
          },
          {
            "atomIds": [
              4,
              8
            ],
            "bo": "SINGLE"
          },
          {
            "atomIds": [
              5,
              9
            ],
            "bo": "SINGLE"
          },
          {
            "atomIds": [
              1,
              10
            ],
            "bo": "SINGLE"
          },
          {
            "atomIds": [
              2,
              6
            ],
            "bo": "SINGLE"
          },
          {
            "atomIds": [
              3,
              7
            ],
            "bo": "SINGLE"
          }
        ]
      },
      "vertexId": 40584,
      "buildingBlockId": 35,
      "buildingBlockType": "FRAGMENT",
      "isRCV": false,
      "properties": {
        "ATTACHMENT_POINTS": "1#SubArS:1:SINGLE:0.2973%0.3873%-0.6389 "
      },
      "uniquefyingPropertyKeys": [],
      "allowedMutationTypes": [
        "DELETE",
        "EXTEND",
        "CHANGEBRANCH",
        "CHANGELINK",
        "ADDLINK",
        "DELETELINK",
        "DELETECHAIN"
      ],
      "vertexType": "MolecularFragment"
    }
  ],
  "gEdges": [
    {
      "srcAPID": 54538,
      "trgAPID": 54541,
      "bondType": "SINGLE"
    },
    {
      "srcAPID": 54540,
      "trgAPID": 54543,
      "bondType": "SINGLE"
    },
    {
      "srcAPID": 54539,
      "trgAPID": 54544,
      "bondType": "SINGLE"
    },
    {
      "srcAPID": 54542,
      "trgAPID": 54569,
      "bondType": "SINGLE"
    }
  ],
  "gRings": [],
  "symVertices": []
}

> <SMILES>
[Pt](C#O)(SC([H])([H])[H])([P]1(C([H])([H])C(C(C(C([H])(C1([H])[H])[H])([H])[H])([H])[H])([H])[H])C=2C(=C(C(=C(C2[H])[H])[H])[H])[H])SC([H])([H])[H]

$$$$
