M00004697
  CDK     04222210233D

 48 51  0  0  0  0  0  0  0  0999 V2000
   -2.5332   -0.0059    0.1002 Pt  0  0  0  0  0  0  0  0  0  0  0  0
   -4.4418   -0.0202   -0.2103 C   0  0  0  0  0  0  0  0  0  0  0  0
   -5.5685   -0.0514   -0.4054 O   0  0  0  0  0  0  0  0  0  0  0  0
   -2.3882    2.0371   -0.1967 O   0  0  0  0  0  0  0  0  0  0  0  0
   -3.0472    2.7417    0.8260 C   0  0  0  0  0  0  0  0  0  0  0  0
   -2.8020    3.8024    0.6739 H   0  0  0  0  0  0  0  0  0  0  0  0
   -2.6897    2.4057    1.8083 H   0  0  0  0  0  0  0  0  0  0  0  0
   -4.1316    2.5960    0.7370 H   0  0  0  0  0  0  0  0  0  0  0  0
   -0.2634   -0.0550    0.3598 P   0  0  0  0  0  0  0  0  0  0  0  0
    0.5337    1.4652    1.0481 C   0  0  0  0  0  0  0  0  0  0  0  0
    0.3509    2.7835    0.6777 C   0  0  0  0  0  0  0  0  0  0  0  0
    1.1015    3.7637    1.3538 C   0  0  0  0  0  0  0  0  0  0  0  0
    1.9891    3.4009    2.3671 C   0  0  0  0  0  0  0  0  0  0  0  0
    2.1514    2.0566    2.7439 C   0  0  0  0  0  0  0  0  0  0  0  0
    1.4153    1.0747    2.0820 C   0  0  0  0  0  0  0  0  0  0  0  0
    1.4489   -0.3800    2.3615 C   0  0  0  0  0  0  0  0  0  0  0  0
    2.2269   -0.9976    3.3402 C   0  0  0  0  0  0  0  0  0  0  0  0
    2.1467   -2.3907    3.5006 C   0  0  0  0  0  0  0  0  0  0  0  0
    1.3025   -3.1566    2.6973 C   0  0  0  0  0  0  0  0  0  0  0  0
    0.5123   -2.5472    1.7045 C   0  0  0  0  0  0  0  0  0  0  0  0
    0.6007   -1.1762    1.5531 C   0  0  0  0  0  0  0  0  0  0  0  0
   -0.3726    3.0680   -0.0994 H   0  0  0  0  0  0  0  0  0  0  0  0
    0.9817    4.8120    1.0827 H   0  0  0  0  0  0  0  0  0  0  0  0
    2.5658    4.1705    2.8823 H   0  0  0  0  0  0  0  0  0  0  0  0
    2.8410    1.7953    3.5436 H   0  0  0  0  0  0  0  0  0  0  0  0
    2.8877   -0.4138    3.9781 H   0  0  0  0  0  0  0  0  0  0  0  0
    2.7526   -2.8755    4.2676 H   0  0  0  0  0  0  0  0  0  0  0  0
    1.2437   -4.2362    2.8379 H   0  0  0  0  0  0  0  0  0  0  0  0
   -0.1510   -3.1676    1.0925 H   0  0  0  0  0  0  0  0  0  0  0  0
    0.3937   -0.3112   -1.4072 C   0  0  0  0  0  0  0  0  0  0  0  0
    1.1910   -1.9402   -3.1394 C   0  0  0  0  0  0  0  0  0  0  0  0
   -0.2290    0.0535   -3.8108 C   0  0  0  0  0  0  0  0  0  0  0  0
    0.1463   -1.4012   -4.1266 C   0  0  0  0  0  0  0  0  0  0  0  0
   -0.7038    0.2001   -2.3551 C   0  0  0  0  0  0  0  0  0  0  0  0
    0.7224   -1.7824   -1.6815 C   0  0  0  0  0  0  0  0  0  0  0  0
    2.1528   -1.4127   -3.2850 H   0  0  0  0  0  0  0  0  0  0  0  0
    0.6378    0.7162   -3.9946 H   0  0  0  0  0  0  0  0  0  0  0  0
   -0.7610   -2.0362   -4.0924 H   0  0  0  0  0  0  0  0  0  0  0  0
   -1.6528   -0.3790   -2.2306 H   0  0  0  0  0  0  0  0  0  0  0  0
   -0.1637   -2.4343   -1.5203 H   0  0  0  0  0  0  0  0  0  0  0  0
    1.3202    0.3026   -1.5388 H   0  0  0  0  0  0  0  0  0  0  0  0
    1.3917   -3.0078   -3.3505 H   0  0  0  0  0  0  0  0  0  0  0  0
   -1.0255    0.3960   -4.4984 H   0  0  0  0  0  0  0  0  0  0  0  0
    0.5316   -1.4756   -5.1606 H   0  0  0  0  0  0  0  0  0  0  0  0
   -0.9662    1.2645   -2.1554 H   0  0  0  0  0  0  0  0  0  0  0  0
    1.5153   -2.1565   -1.0038 H   0  0  0  0  0  0  0  0  0  0  0  0
   -2.5795   -1.9710    0.2792 C   0  0  0  0  0  0  0  0  0  0  0  0
   -2.5844   -3.1243    0.3641 N   0  0  0  0  0  0  0  0  0  0  0  0
  2  3  3  0  0  0  0
  1  2  1  0  0  0  0
  5  6  1  0  0  0  0
  5  7  1  0  0  0  0
  5  8  1  0  0  0  0
  4  5  1  0  0  0  0
  1  4  1  0  0  0  0
  9 10  1  0  0  0  0
 10 11  2  0  0  0  0
 11 12  1  0  0  0  0
 12 13  2  0  0  0  0
 13 14  1  0  0  0  0
 14 15  2  0  0  0  0
 15 10  1  0  0  0  0
 16 15  1  0  0  0  0
 16 21  1  0  0  0  0
 17 16  2  0  0  0  0
 18 17  1  0  0  0  0
 19 18  2  0  0  0  0
 20 19  1  0  0  0  0
 20 21  2  0  0  0  0
 21  9  1  0  0  0  0
 22 11  1  0  0  0  0
 23 12  1  0  0  0  0
 24 13  1  0  0  0  0
 25 14  1  0  0  0  0
 26 17  1  0  0  0  0
 27 18  1  0  0  0  0
 28 19  1  0  0  0  0
 29 20  1  0  0  0  0
  1  9  1  0  0  0  0
 30 41  1  0  0  0  0
 30 34  1  0  0  0  0
 30 35  1  0  0  0  0
 31 36  1  0  0  0  0
 31 42  1  0  0  0  0
 31 33  1  0  0  0  0
 31 35  1  0  0  0  0
 32 37  1  0  0  0  0
 32 43  1  0  0  0  0
 32 34  1  0  0  0  0
 32 33  1  0  0  0  0
 33 38  1  0  0  0  0
 33 44  1  0  0  0  0
 34 39  1  0  0  0  0
 34 45  1  0  0  0  0
 35 40  1  0  0  0  0
 35 46  1  0  0  0  0
  9 30  1  0  0  0  0
 47 48  3  0  0  0  0
  1 47  1  0  0  0  0
M  END
> <PM6_ENERGY>
-5.152

> <UID>
RMMCFQSEUIVOPZ-NFSRDACPNA-N

> <FITNESS>
1.14389

> <GCODE>
5465

> <GraphENC>
5465 72_1_0,80_65_1,117_57_1,87_66_1,107914_35_1, 72_0_80_0_SINGLE_Xlig:0_Xlig:1,72_2_117_1_SINGLE_scaff:0_MPhosphole:1,72_1_87_0_SINGLE_Xlig:0_Xlig:1,117_0_107914_0_SINGLE_LPhospholeSubR:0_SubRM:1, 

> <GraphJson>
{
  "graphId": 5465,
  "gVertices": [
    {
      "lstAPs": [
        {
          "id": 141805,
          "atomPositionNumber": 0,
          "atomPositionNumberInMol": 0,
          "apClass": {
            "rule": "Xlig",
            "subClass": 0,
            "bndTyp": "SINGLE"
          },
          "dirVec": {
            "x": -2.3339,
            "y": -0.0087,
            "z": 0.8172
          }
        },
        {
          "id": 141806,
          "atomPositionNumber": 0,
          "atomPositionNumberInMol": 0,
          "apClass": {
            "rule": "Xlig",
            "subClass": 0,
            "bndTyp": "SINGLE"
          },
          "dirVec": {
            "x": 2.336,
            "y": -5.0E-4,
            "z": 0.829
          }
        },
        {
          "id": 141807,
          "atomPositionNumber": 0,
          "atomPositionNumberInMol": 0,
          "apClass": {
            "rule": "scaff",
            "subClass": 0,
            "bndTyp": "SINGLE"
          },
          "dirVec": {
            "x": -0.0095,
            "y": 0.0046,
            "z": -1.7113
          }
        }
      ],
      "lstSymAPs": [
        {
          "symIds": [
            0,
            1
          ]
        }
      ],
      "mol": {
        "atoms": [
          {
            "elSymbol": "Pt",
            "p3d": {
              "x": -0.0098,
              "y": 0.0049,
              "z": 0.6289
            }
          },
          {
            "elSymbol": "C",
            "p3d": {
              "x": -6.0E-4,
              "y": 0.0016,
              "z": 2.5609
            }
          },
          {
            "elSymbol": "O",
            "p3d": {
              "x": 0.0025,
              "y": -0.0041,
              "z": 3.6974
            }
          },
          {
            "elSymbol": "Du",
            "p3d": {
              "x": -0.007,
              "y": 1.0013,
              "z": 0.6372
            }
          },
          {
            "elSymbol": "Du",
            "p3d": {
              "x": -0.0014,
              "y": 0.9902,
              "z": 2.5698
            }
          }
        ],
        "bonds": [
          {
            "atomIds": [
              1,
              2
            ],
            "bo": "TRIPLE"
          },
          {
            "atomIds": [
              0,
              1
            ],
            "bo": "SINGLE"
          },
          {
            "atomIds": [
              3,
              0
            ],
            "bo": "SINGLE"
          },
          {
            "atomIds": [
              4,
              1
            ],
            "bo": "SINGLE"
          }
        ]
      },
      "vertexId": 72,
      "buildingBlockId": 0,
      "buildingBlockType": "SCAFFOLD",
      "isRCV": false,
      "properties": {
        "ATTACHMENT_POINTS": "1#Xlig:0:SINGLE:-2.3339%-0.0087%0.8172,Xlig:0:SINGLE:2.3360%-0.0005%0.8290,scaff:0:SINGLE:-0.0095%0.0046%-1.7113 "
      },
      "uniquefyingPropertyKeys": [],
      "allowedMutationTypes": [
        "DELETE",
        "EXTEND",
        "CHANGEBRANCH",
        "CHANGELINK",
        "ADDLINK",
        "DELETELINK",
        "DELETECHAIN"
      ],
      "vertexType": "MolecularFragment"
    },
    {
      "lstAPs": [
        {
          "id": 141808,
          "atomPositionNumber": 0,
          "atomPositionNumberInMol": 5,
          "apClass": {
            "rule": "Xlig",
            "subClass": 1,
            "bndTyp": "SINGLE"
          },
          "dirVec": {
            "x": -0.1753,
            "y": 0.0948,
            "z": -0.4464
          }
        }
      ],
      "lstSymAPs": [],
      "mol": {
        "atoms": [
          {
            "elSymbol": "O",
            "p3d": {
              "x": -0.3534,
              "y": 2.1044,
              "z": -0.7339
            }
          },
          {
            "elSymbol": "C",
            "p3d": {
              "x": -0.5345,
              "y": 2.7646,
              "z": 0.4801
            }
          },
          {
            "elSymbol": "H",
            "p3d": {
              "x": -0.3728,
              "y": 3.8337,
              "z": 0.2724
            }
          },
          {
            "elSymbol": "H",
            "p3d": {
              "x": 0.1816,
              "y": 2.4161,
              "z": 1.2384
            }
          },
          {
            "elSymbol": "H",
            "p3d": {
              "x": -1.553,
              "y": 2.6149,
              "z": 0.8489
            }
          }
        ],
        "bonds": [
          {
            "atomIds": [
              1,
              2
            ],
            "bo": "SINGLE"
          },
          {
            "atomIds": [
              1,
              3
            ],
            "bo": "SINGLE"
          },
          {
            "atomIds": [
              1,
              4
            ],
            "bo": "SINGLE"
          },
          {
            "atomIds": [
              0,
              1
            ],
            "bo": "SINGLE"
          }
        ]
      },
      "vertexId": 80,
      "buildingBlockId": 64,
      "buildingBlockType": "FRAGMENT",
      "isRCV": false,
      "properties": {
        "ATTACHMENT_POINTS": "1#Xlig:1:SINGLE:-0.1753%0.0948%-0.4464 "
      },
      "uniquefyingPropertyKeys": [],
      "allowedMutationTypes": [
        "DELETE",
        "EXTEND",
        "CHANGEBRANCH",
        "CHANGELINK",
        "ADDLINK",
        "DELETELINK",
        "DELETECHAIN"
      ],
      "vertexType": "MolecularFragment"
    },
    {
      "lstAPs": [
        {
          "id": 141809,
          "atomPositionNumber": 0,
          "atomPositionNumberInMol": 10,
          "apClass": {
            "rule": "LPhospholeSubR",
            "subClass": 0,
            "bndTyp": "SINGLE"
          },
          "dirVec": {
            "x": 8.2979,
            "y": 3.6599,
            "z": 9.907
          }
        },
        {
          "id": 141810,
          "atomPositionNumber": 0,
          "atomPositionNumberInMol": 10,
          "apClass": {
            "rule": "MPhosphole",
            "subClass": 1,
            "bndTyp": "SINGLE"
          },
          "dirVec": {
            "x": 8.1114,
            "y": 1.563,
            "z": 6.7555
          }
        }
      ],
      "lstSymAPs": [],
      "mol": {
        "atoms": [
          {
            "elSymbol": "P",
            "p3d": {
              "x": 7.3852,
              "y": 3.3353,
              "z": 8.349
            }
          },
          {
            "elSymbol": "C",
            "p3d": {
              "x": 7.2878,
              "y": 5.0039,
              "z": 7.6394
            }
          },
          {
            "elSymbol": "C",
            "p3d": {
              "x": 8.2867,
              "y": 5.7253,
              "z": 7.0209
            }
          },
          {
            "elSymbol": "C",
            "p3d": {
              "x": 7.9761,
              "y": 6.9837,
              "z": 6.5025
            }
          },
          {
            "elSymbol": "C",
            "p3d": {
              "x": 6.7261,
              "y": 7.4825,
              "z": 6.6338
            }
          },
          {
            "elSymbol": "C",
            "p3d": {
              "x": 5.742,
              "y": 6.7839,
              "z": 7.2506
            }
          },
          {
            "elSymbol": "C",
            "p3d": {
              "x": 6.0001,
              "y": 5.545,
              "z": 7.7891
            }
          },
          {
            "elSymbol": "C",
            "p3d": {
              "x": 5.0707,
              "y": 4.6709,
              "z": 8.5094
            }
          },
          {
            "elSymbol": "C",
            "p3d": {
              "x": 3.7379,
              "y": 4.9022,
              "z": 8.8416
            }
          },
          {
            "elSymbol": "C",
            "p3d": {
              "x": 3.0581,
              "y": 3.9613,
              "z": 9.5076
            }
          },
          {
            "elSymbol": "C",
            "p3d": {
              "x": 3.592,
              "y": 2.7603,
              "z": 9.8266
            }
          },
          {
            "elSymbol": "C",
            "p3d": {
              "x": 4.9369,
              "y": 2.494,
              "z": 9.5465
            }
          },
          {
            "elSymbol": "C",
            "p3d": {
              "x": 5.6287,
              "y": 3.4387,
              "z": 8.8671
            }
          },
          {
            "elSymbol": "H",
            "p3d": {
              "x": 9.3019,
              "y": 5.3077,
              "z": 6.9257
            }
          },
          {
            "elSymbol": "H",
            "p3d": {
              "x": 8.7469,
              "y": 7.56,
              "z": 6.0141
            }
          },
          {
            "elSymbol": "H",
            "p3d": {
              "x": 6.5026,
              "y": 8.4647,
              "z": 6.2206
            }
          },
          {
            "elSymbol": "H",
            "p3d": {
              "x": 4.7435,
              "y": 7.2295,
              "z": 7.3444
            }
          },
          {
            "elSymbol": "H",
            "p3d": {
              "x": 3.2597,
              "y": 5.842,
              "z": 8.5703
            }
          },
          {
            "elSymbol": "H",
            "p3d": {
              "x": 2.0248,
              "y": 4.1573,
              "z": 9.8149
            }
          },
          {
            "elSymbol": "H",
            "p3d": {
              "x": 2.9835,
              "y": 2.0,
              "z": 10.2956
            }
          },
          {
            "elSymbol": "H",
            "p3d": {
              "x": 5.394,
              "y": 1.5535,
              "z": 9.8429
            }
          }
        ],
        "bonds": [
          {
            "atomIds": [
              0,
              1
            ],
            "bo": "SINGLE"
          },
          {
            "atomIds": [
              1,
              2
            ],
            "bo": "DOUBLE"
          },
          {
            "atomIds": [
              2,
              3
            ],
            "bo": "SINGLE"
          },
          {
            "atomIds": [
              3,
              4
            ],
            "bo": "DOUBLE"
          },
          {
            "atomIds": [
              4,
              5
            ],
            "bo": "SINGLE"
          },
          {
            "atomIds": [
              5,
              6
            ],
            "bo": "DOUBLE"
          },
          {
            "atomIds": [
              6,
              1
            ],
            "bo": "SINGLE"
          },
          {
            "atomIds": [
              7,
              6
            ],
            "bo": "SINGLE"
          },
          {
            "atomIds": [
              7,
              12
            ],
            "bo": "SINGLE"
          },
          {
            "atomIds": [
              8,
              7
            ],
            "bo": "DOUBLE"
          },
          {
            "atomIds": [
              9,
              8
            ],
            "bo": "SINGLE"
          },
          {
            "atomIds": [
              10,
              9
            ],
            "bo": "DOUBLE"
          },
          {
            "atomIds": [
              11,
              10
            ],
            "bo": "SINGLE"
          },
          {
            "atomIds": [
              11,
              12
            ],
            "bo": "DOUBLE"
          },
          {
            "atomIds": [
              12,
              0
            ],
            "bo": "SINGLE"
          },
          {
            "atomIds": [
              13,
              2
            ],
            "bo": "SINGLE"
          },
          {
            "atomIds": [
              14,
              3
            ],
            "bo": "SINGLE"
          },
          {
            "atomIds": [
              15,
              4
            ],
            "bo": "SINGLE"
          },
          {
            "atomIds": [
              16,
              5
            ],
            "bo": "SINGLE"
          },
          {
            "atomIds": [
              17,
              8
            ],
            "bo": "SINGLE"
          },
          {
            "atomIds": [
              18,
              9
            ],
            "bo": "SINGLE"
          },
          {
            "atomIds": [
              19,
              10
            ],
            "bo": "SINGLE"
          },
          {
            "atomIds": [
              20,
              11
            ],
            "bo": "SINGLE"
          }
        ]
      },
      "vertexId": 117,
      "buildingBlockId": 56,
      "buildingBlockType": "FRAGMENT",
      "isRCV": false,
      "properties": {
        "ATTACHMENT_POINTS": "1#LPhospholeSubR:0:SINGLE:8.2979%3.6599%9.9070,MPhosphole:1:SINGLE:8.1114%1.5630%6.7555 "
      },
      "uniquefyingPropertyKeys": [],
      "allowedMutationTypes": [
        "DELETE",
        "EXTEND",
        "CHANGEBRANCH",
        "CHANGELINK",
        "ADDLINK",
        "DELETELINK",
        "DELETECHAIN"
      ],
      "vertexType": "MolecularFragment"
    },
    {
      "lstAPs": [
        {
          "id": 141811,
          "atomPositionNumber": 0,
          "atomPositionNumberInMol": 48,
          "apClass": {
            "rule": "Xlig",
            "subClass": 1,
            "bndTyp": "SINGLE"
          },
          "dirVec": {
            "x": 0.0192,
            "y": -0.0048,
            "z": -0.5645
          }
        }
      ],
      "lstSymAPs": [],
      "mol": {
        "atoms": [
          {
            "elSymbol": "C",
            "p3d": {
              "x": -1.967,
              "y": -0.0075,
              "z": -0.4937
            }
          },
          {
            "elSymbol": "N",
            "p3d": {
              "x": -3.1263,
              "y": -0.0054,
              "z": -0.4354
            }
          },
          {
            "elSymbol": "Du",
            "p3d": {
              "x": -1.9744,
              "y": 0.9926,
              "z": -0.5036
            }
          }
        ],
        "bonds": [
          {
            "atomIds": [
              0,
              1
            ],
            "bo": "TRIPLE"
          },
          {
            "atomIds": [
              2,
              0
            ],
            "bo": "SINGLE"
          }
        ]
      },
      "vertexId": 87,
      "buildingBlockId": 65,
      "buildingBlockType": "FRAGMENT",
      "isRCV": false,
      "properties": {
        "ATTACHMENT_POINTS": "1#Xlig:1:SINGLE:0.0192%-0.0048%-0.5645 "
      },
      "uniquefyingPropertyKeys": [],
      "allowedMutationTypes": [
        "DELETE",
        "EXTEND",
        "CHANGEBRANCH",
        "CHANGELINK",
        "ADDLINK",
        "DELETELINK",
        "DELETECHAIN"
      ],
      "vertexType": "MolecularFragment"
    },
    {
      "lstAPs": [
        {
          "id": 141836,
          "atomPositionNumber": 0,
          "atomPositionNumberInMol": 31,
          "apClass": {
            "rule": "SubRM",
            "subClass": 1,
            "bndTyp": "SINGLE"
          },
          "dirVec": {
            "x": 0.2917,
            "y": 0.3929,
            "z": -0.6365
          }
        }
      ],
      "lstSymAPs": [],
      "mol": {
        "atoms": [
          {
            "elSymbol": "C",
            "p3d": {
              "x": 1.7002,
              "y": 0.56,
              "z": -1.2045
            }
          },
          {
            "elSymbol": "C",
            "p3d": {
              "x": 3.564,
              "y": -0.7339,
              "z": -2.2652
            }
          },
          {
            "elSymbol": "C",
            "p3d": {
              "x": 2.9237,
              "y": 1.5034,
              "z": -3.1926
            }
          },
          {
            "elSymbol": "C",
            "p3d": {
              "x": 3.4145,
              "y": 0.0994,
              "z": -3.5498
            }
          },
          {
            "elSymbol": "C",
            "p3d": {
              "x": 1.5576,
              "y": 1.3879,
              "z": -2.5024
            }
          },
          {
            "elSymbol": "C",
            "p3d": {
              "x": 2.203,
              "y": -0.843,
              "z": -1.5702
            }
          },
          {
            "elSymbol": "H",
            "p3d": {
              "x": 4.3384,
              "y": -0.3241,
              "z": -1.6106
            }
          },
          {
            "elSymbol": "H",
            "p3d": {
              "x": 3.6361,
              "y": 2.0524,
              "z": -2.5991
            }
          },
          {
            "elSymbol": "H",
            "p3d": {
              "x": 2.7828,
              "y": -0.3911,
              "z": -4.2916
            }
          },
          {
            "elSymbol": "H",
            "p3d": {
              "x": 0.7737,
              "y": 0.9833,
              "z": -3.15
            }
          },
          {
            "elSymbol": "H",
            "p3d": {
              "x": 1.4815,
              "y": -1.3988,
              "z": -2.1783
            }
          },
          {
            "elSymbol": "H",
            "p3d": {
              "x": 2.3445,
              "y": 1.0609,
              "z": -0.4835
            }
          },
          {
            "elSymbol": "H",
            "p3d": {
              "x": 3.8429,
              "y": -1.7623,
              "z": -2.577
            }
          },
          {
            "elSymbol": "H",
            "p3d": {
              "x": 2.7428,
              "y": 2.0124,
              "z": -4.146
            }
          },
          {
            "elSymbol": "H",
            "p3d": {
              "x": 4.4291,
              "y": 0.2183,
              "z": -3.9628
            }
          },
          {
            "elSymbol": "H",
            "p3d": {
              "x": 1.2819,
              "y": 2.4034,
              "z": -2.1821
            }
          },
          {
            "elSymbol": "H",
            "p3d": {
              "x": 2.3734,
              "y": -1.3662,
              "z": -0.6149
            }
          }
        ],
        "bonds": [
          {
            "atomIds": [
              0,
              11
            ],
            "bo": "SINGLE"
          },
          {
            "atomIds": [
              0,
              4
            ],
            "bo": "SINGLE"
          },
          {
            "atomIds": [
              0,
              5
            ],
            "bo": "SINGLE"
          },
          {
            "atomIds": [
              1,
              6
            ],
            "bo": "SINGLE"
          },
          {
            "atomIds": [
              1,
              12
            ],
            "bo": "SINGLE"
          },
          {
            "atomIds": [
              1,
              3
            ],
            "bo": "SINGLE"
          },
          {
            "atomIds": [
              1,
              5
            ],
            "bo": "SINGLE"
          },
          {
            "atomIds": [
              2,
              7
            ],
            "bo": "SINGLE"
          },
          {
            "atomIds": [
              2,
              13
            ],
            "bo": "SINGLE"
          },
          {
            "atomIds": [
              2,
              4
            ],
            "bo": "SINGLE"
          },
          {
            "atomIds": [
              2,
              3
            ],
            "bo": "SINGLE"
          },
          {
            "atomIds": [
              3,
              8
            ],
            "bo": "SINGLE"
          },
          {
            "atomIds": [
              3,
              14
            ],
            "bo": "SINGLE"
          },
          {
            "atomIds": [
              4,
              9
            ],
            "bo": "SINGLE"
          },
          {
            "atomIds": [
              4,
              15
            ],
            "bo": "SINGLE"
          },
          {
            "atomIds": [
              5,
              10
            ],
            "bo": "SINGLE"
          },
          {
            "atomIds": [
              5,
              16
            ],
            "bo": "SINGLE"
          }
        ]
      },
      "vertexId": 107914,
      "buildingBlockId": 34,
      "buildingBlockType": "FRAGMENT",
      "isRCV": false,
      "properties": {
        "ATTACHMENT_POINTS": "1#SubRM:1:SINGLE:0.2917%0.3929%-0.6365 "
      },
      "uniquefyingPropertyKeys": [],
      "allowedMutationTypes": [
        "DELETE",
        "EXTEND",
        "CHANGEBRANCH",
        "CHANGELINK",
        "ADDLINK",
        "DELETELINK",
        "DELETECHAIN"
      ],
      "vertexType": "MolecularFragment"
    }
  ],
  "gEdges": [
    {
      "srcAPID": 141805,
      "trgAPID": 141808,
      "bondType": "SINGLE"
    },
    {
      "srcAPID": 141807,
      "trgAPID": 141810,
      "bondType": "SINGLE"
    },
    {
      "srcAPID": 141806,
      "trgAPID": 141811,
      "bondType": "SINGLE"
    },
    {
      "srcAPID": 141809,
      "trgAPID": 141836,
      "bondType": "SINGLE"
    }
  ],
  "gRings": [],
  "symVertices": []
}

> <SMILES>
[Pt](C#O)(OC([H])([H])[H])([P]1(C2=C(C(=C(C(=C2C=3C1=C(C(=C(C3[H])[H])[H])[H])[H])[H])[H])[H])C4([H])C(C([H])([H])C(C([H])([H])C4([H])[H])([H])[H])([H])[H])C#N

$$$$
