M00016094
  CDK     04222214243D

 31 32  0  0  0  0  0  0  0  0999 V2000
   -2.0745   -0.8210   -0.5031 Pt  0  0  0  0  0  0  0  0  0  0  0  0
   -3.9605   -1.3940   -0.5971 C   0  0  0  0  0  0  0  0  0  0  0  0
   -5.0455   -1.7320   -0.6681 O   0  0  0  0  0  0  0  0  0  0  0  0
   -2.8883    1.1300   -1.5015 Cl  0  0  0  0  0  0  0  0  0  0  0  0
    0.8380   -2.1579   -1.9404 C   0  0  0  0  0  0  0  0  0  0  0  0
   -0.1874   -2.5844   -1.8926 H   0  0  0  0  0  0  0  0  0  0  0  0
    1.5701   -2.9919   -1.9311 H   0  0  0  0  0  0  0  0  0  0  0  0
    1.0554   -1.2112   -3.1228 C   0  0  0  0  0  0  0  0  0  0  0  0
    2.1335   -0.9429   -3.1854 H   0  0  0  0  0  0  0  0  0  0  0  0
    0.8233   -1.7337   -4.0734 H   0  0  0  0  0  0  0  0  0  0  0  0
    0.2216    0.0671   -3.0131 C   0  0  0  0  0  0  0  0  0  0  0  0
    0.5137    0.8244   -3.7699 H   0  0  0  0  0  0  0  0  0  0  0  0
   -0.8737   -0.1065   -3.0886 H   0  0  0  0  0  0  0  0  0  0  0  0
    1.1557   -1.4874   -0.6813 O   0  0  0  0  0  0  0  0  0  0  0  0
    0.5273    0.7746   -1.7713 O   0  0  0  0  0  0  0  0  0  0  0  0
    0.1217   -0.1832   -0.4521 P   0  0  0  0  0  0  0  0  0  0  0  0
    0.7118    0.6900    1.0187 C   0  0  0  0  0  0  0  0  0  0  0  0
    1.7117    2.0340    3.2349 C   0  0  0  0  0  0  0  0  0  0  0  0
   -0.1532    0.9652    2.0901 C   0  0  0  0  0  0  0  0  0  0  0  0
    2.0587    1.0765    1.0427 C   0  0  0  0  0  0  0  0  0  0  0  0
    2.5599    1.7514    2.1554 C   0  0  0  0  0  0  0  0  0  0  0  0
    0.3729    1.6469    3.2052 C   0  0  0  0  0  0  0  0  0  0  0  0
    2.7302    0.8605    0.2052 H   0  0  0  0  0  0  0  0  0  0  0  0
    3.6042    2.0578    2.1870 H   0  0  0  0  0  0  0  0  0  0  0  0
   -0.2732    1.8737    4.0528 H   0  0  0  0  0  0  0  0  0  0  0  0
    2.1040    2.5618    4.1064 H   0  0  0  0  0  0  0  0  0  0  0  0
   -1.5932    0.5686    2.0950 C   0  0  0  0  0  0  0  0  0  0  0  0
   -1.7331   -0.5308    2.0387 H   0  0  0  0  0  0  0  0  0  0  0  0
   -2.1695    1.0413    1.2728 H   0  0  0  0  0  0  0  0  0  0  0  0
   -2.1076    0.8767    3.0195 H   0  0  0  0  0  0  0  0  0  0  0  0
   -1.7541   -2.9236    0.4672 Cl  0  0  0  0  0  0  0  0  0  0  0  0
  2  3  3  0  0  0  0
  1  2  1  0  0  0  0
  1  4  1  0  0  0  0
  5  6  1  0  0  0  0
  7  5  1  0  0  0  0
  8  5  1  0  0  0  0
  9  8  1  0  0  0  0
 10  8  1  0  0  0  0
 11  8  1  0  0  0  0
 12 11  1  0  0  0  0
 13 11  1  0  0  0  0
 14  5  1  0  0  0  0
 14 16  1  0  0  0  0
 15 11  1  0  0  0  0
 15 16  1  0  0  0  0
  1 16  1  0  0  0  0
 17 20  1  0  0  0  0
 20 21  2  0  0  0  0
 18 21  1  0  0  0  0
 18 22  2  0  0  0  0
 19 22  1  0  0  0  0
 17 19  2  0  0  0  0
 21 24  1  0  0  0  0
 22 25  1  0  0  0  0
 18 26  1  0  0  0  0
 20 23  1  0  0  0  0
 27 28  1  0  0  0  0
 27 29  1  0  0  0  0
 27 30  1  0  0  0  0
 19 27  1  0  0  0  0
 16 17  1  0  0  0  0
  1 31  1  0  0  0  0
M  END
> <PM6_ENERGY>
-626.453

> <UID>
BGVRWUJXZZVWHC-UWPIIFBHNA-L

> <FITNESS>
1.13864

> <GCODE>
17380

> <GraphENC>
17380 72_1_0,82_67_1,119_59_1,88_67_1,357125_37_1, 72_0_82_0_SINGLE_Xlig:0_Xlig:1,72_2_119_1_SINGLE_scaff:0_MPhosphonite:1,72_1_88_0_SINGLE_Xlig:0_Xlig:1,119_0_357125_0_SINGLE_LPhosphoniteSubR:0_SubArM:1, 

> <GraphJson>
{
  "graphId": 17380,
  "gVertices": [
    {
      "lstAPs": [
        {
          "id": 465205,
          "atomPositionNumber": 0,
          "atomPositionNumberInMol": 0,
          "apClass": {
            "rule": "Xlig",
            "subClass": 0,
            "bndTyp": "SINGLE"
          },
          "dirVec": {
            "x": -2.3339,
            "y": -0.0087,
            "z": 0.8172
          }
        },
        {
          "id": 465206,
          "atomPositionNumber": 0,
          "atomPositionNumberInMol": 0,
          "apClass": {
            "rule": "Xlig",
            "subClass": 0,
            "bndTyp": "SINGLE"
          },
          "dirVec": {
            "x": 2.336,
            "y": -5.0E-4,
            "z": 0.829
          }
        },
        {
          "id": 465207,
          "atomPositionNumber": 0,
          "atomPositionNumberInMol": 0,
          "apClass": {
            "rule": "scaff",
            "subClass": 0,
            "bndTyp": "SINGLE"
          },
          "dirVec": {
            "x": -0.0095,
            "y": 0.0046,
            "z": -1.7113
          }
        }
      ],
      "lstSymAPs": [
        {
          "symIds": [
            0,
            1
          ]
        }
      ],
      "mol": {
        "atoms": [
          {
            "elSymbol": "Pt",
            "p3d": {
              "x": -0.0098,
              "y": 0.0049,
              "z": 0.6289
            }
          },
          {
            "elSymbol": "C",
            "p3d": {
              "x": -6.0E-4,
              "y": 0.0016,
              "z": 2.5609
            }
          },
          {
            "elSymbol": "O",
            "p3d": {
              "x": 0.0025,
              "y": -0.0041,
              "z": 3.6974
            }
          },
          {
            "elSymbol": "Du",
            "p3d": {
              "x": -0.007,
              "y": 1.0013,
              "z": 0.6372
            }
          },
          {
            "elSymbol": "Du",
            "p3d": {
              "x": -0.0014,
              "y": 0.9902,
              "z": 2.5698
            }
          }
        ],
        "bonds": [
          {
            "atomIds": [
              1,
              2
            ],
            "bo": "TRIPLE"
          },
          {
            "atomIds": [
              0,
              1
            ],
            "bo": "SINGLE"
          },
          {
            "atomIds": [
              3,
              0
            ],
            "bo": "SINGLE"
          },
          {
            "atomIds": [
              4,
              1
            ],
            "bo": "SINGLE"
          }
        ]
      },
      "vertexId": 72,
      "buildingBlockId": 0,
      "buildingBlockType": "SCAFFOLD",
      "isRCV": false,
      "properties": {
        "ATTACHMENT_POINTS": "1#Xlig:0:SINGLE:-2.3339%-0.0087%0.8172,Xlig:0:SINGLE:2.3360%-0.0005%0.8290,scaff:0:SINGLE:-0.0095%0.0046%-1.7113 "
      },
      "uniquefyingPropertyKeys": [],
      "allowedMutationTypes": [
        "DELETE",
        "EXTEND",
        "CHANGEBRANCH",
        "CHANGELINK",
        "ADDLINK",
        "DELETELINK",
        "DELETECHAIN"
      ],
      "vertexType": "MolecularFragment"
    },
    {
      "lstAPs": [
        {
          "id": 465208,
          "atomPositionNumber": 0,
          "atomPositionNumberInMol": 5,
          "apClass": {
            "rule": "Xlig",
            "subClass": 1,
            "bndTyp": "SINGLE"
          },
          "dirVec": {
            "x": -0.0053,
            "y": -0.0027,
            "z": 0.63
          }
        }
      ],
      "lstSymAPs": [],
      "mol": {
        "atoms": [
          {
            "elSymbol": "Cl",
            "p3d": {
              "x": 2.3243,
              "y": -0.0063,
              "z": 0.8189
            }
          }
        ],
        "bonds": []
      },
      "vertexId": 82,
      "buildingBlockId": 66,
      "buildingBlockType": "FRAGMENT",
      "isRCV": false,
      "properties": {
        "ATTACHMENT_POINTS": "1#Xlig:1:SINGLE:-0.0053%-0.0027%0.6300 "
      },
      "uniquefyingPropertyKeys": [],
      "allowedMutationTypes": [
        "DELETE",
        "EXTEND",
        "CHANGEBRANCH",
        "CHANGELINK",
        "ADDLINK",
        "DELETELINK",
        "DELETECHAIN"
      ],
      "vertexType": "MolecularFragment"
    },
    {
      "lstAPs": [
        {
          "id": 465209,
          "atomPositionNumber": 11,
          "atomPositionNumberInMol": 17,
          "apClass": {
            "rule": "LPhosphoniteSubR",
            "subClass": 0,
            "bndTyp": "SINGLE"
          },
          "dirVec": {
            "x": 2.7128,
            "y": 1.5224,
            "z": 3.4841
          }
        },
        {
          "id": 465210,
          "atomPositionNumber": 11,
          "atomPositionNumberInMol": 17,
          "apClass": {
            "rule": "MPhosphonite",
            "subClass": 1,
            "bndTyp": "SINGLE"
          },
          "dirVec": {
            "x": 2.5476,
            "y": 4.788,
            "z": 4.3969
          }
        }
      ],
      "lstSymAPs": [],
      "mol": {
        "atoms": [
          {
            "elSymbol": "C",
            "p3d": {
              "x": 0.7537,
              "y": 3.745,
              "z": 0.8399
            }
          },
          {
            "elSymbol": "H",
            "p3d": {
              "x": 0.5695,
              "y": 4.7704,
              "z": 1.1332
            }
          },
          {
            "elSymbol": "H",
            "p3d": {
              "x": -0.148,
              "y": 3.3512,
              "z": 0.3374
            }
          },
          {
            "elSymbol": "C",
            "p3d": {
              "x": 1.9094,
              "y": 3.7216,
              "z": -0.1375
            }
          },
          {
            "elSymbol": "H",
            "p3d": {
              "x": 2.0131,
              "y": 2.7201,
              "z": -0.556
            }
          },
          {
            "elSymbol": "H",
            "p3d": {
              "x": 1.7132,
              "y": 4.3969,
              "z": -0.9763
            }
          },
          {
            "elSymbol": "C",
            "p3d": {
              "x": 3.1937,
              "y": 4.0991,
              "z": 0.5062
            }
          },
          {
            "elSymbol": "H",
            "p3d": {
              "x": 4.0091,
              "y": 4.059,
              "z": -0.2475
            }
          },
          {
            "elSymbol": "H",
            "p3d": {
              "x": 3.1376,
              "y": 5.1254,
              "z": 0.85
            }
          },
          {
            "elSymbol": "O",
            "p3d": {
              "x": 1.0555,
              "y": 2.9275,
              "z": 2.0087
            }
          },
          {
            "elSymbol": "O",
            "p3d": {
              "x": 3.5155,
              "y": 3.2295,
              "z": 1.6213
            }
          },
          {
            "elSymbol": "P",
            "p3d": {
              "x": 2.4376,
              "y": 3.1406,
              "z": 2.7957
            }
          }
        ],
        "bonds": [
          {
            "atomIds": [
              0,
              1
            ],
            "bo": "SINGLE"
          },
          {
            "atomIds": [
              2,
              0
            ],
            "bo": "SINGLE"
          },
          {
            "atomIds": [
              3,
              0
            ],
            "bo": "SINGLE"
          },
          {
            "atomIds": [
              4,
              3
            ],
            "bo": "SINGLE"
          },
          {
            "atomIds": [
              5,
              3
            ],
            "bo": "SINGLE"
          },
          {
            "atomIds": [
              6,
              3
            ],
            "bo": "SINGLE"
          },
          {
            "atomIds": [
              7,
              6
            ],
            "bo": "SINGLE"
          },
          {
            "atomIds": [
              8,
              6
            ],
            "bo": "SINGLE"
          },
          {
            "atomIds": [
              9,
              0
            ],
            "bo": "SINGLE"
          },
          {
            "atomIds": [
              9,
              11
            ],
            "bo": "SINGLE"
          },
          {
            "atomIds": [
              10,
              6
            ],
            "bo": "SINGLE"
          },
          {
            "atomIds": [
              10,
              11
            ],
            "bo": "SINGLE"
          }
        ]
      },
      "vertexId": 119,
      "buildingBlockId": 58,
      "buildingBlockType": "FRAGMENT",
      "isRCV": false,
      "properties": {
        "ATTACHMENT_POINTS": "12#LPhosphoniteSubR:0:SINGLE:2.7128%1.5224%3.4841,MPhosphonite:1:SINGLE:2.5476%4.7880%4.3969 "
      },
      "uniquefyingPropertyKeys": [],
      "allowedMutationTypes": [
        "DELETE",
        "EXTEND",
        "CHANGEBRANCH",
        "CHANGELINK",
        "ADDLINK",
        "DELETELINK",
        "DELETECHAIN"
      ],
      "vertexType": "MolecularFragment"
    },
    {
      "lstAPs": [
        {
          "id": 465211,
          "atomPositionNumber": 0,
          "atomPositionNumberInMol": 32,
          "apClass": {
            "rule": "Xlig",
            "subClass": 1,
            "bndTyp": "SINGLE"
          },
          "dirVec": {
            "x": -0.0053,
            "y": -0.0027,
            "z": 0.63
          }
        }
      ],
      "lstSymAPs": [],
      "mol": {
        "atoms": [
          {
            "elSymbol": "Cl",
            "p3d": {
              "x": 2.3243,
              "y": -0.0063,
              "z": 0.8189
            }
          }
        ],
        "bonds": []
      },
      "vertexId": 88,
      "buildingBlockId": 66,
      "buildingBlockType": "FRAGMENT",
      "isRCV": false,
      "properties": {
        "ATTACHMENT_POINTS": "1#Xlig:1:SINGLE:-0.0053%-0.0027%0.6300 "
      },
      "uniquefyingPropertyKeys": [],
      "allowedMutationTypes": [
        "DELETE",
        "EXTEND",
        "CHANGEBRANCH",
        "CHANGELINK",
        "ADDLINK",
        "DELETELINK",
        "DELETECHAIN"
      ],
      "vertexType": "MolecularFragment"
    },
    {
      "lstAPs": [
        {
          "id": 465236,
          "atomPositionNumber": 0,
          "atomPositionNumberInMol": 18,
          "apClass": {
            "rule": "SubArM",
            "subClass": 1,
            "bndTyp": "SINGLE"
          },
          "dirVec": {
            "x": 0.3016,
            "y": 0.3831,
            "z": -0.6449
          }
        }
      ],
      "lstSymAPs": [],
      "mol": {
        "atoms": [
          {
            "elSymbol": "C",
            "p3d": {
              "x": 1.7096,
              "y": 0.5525,
              "z": -1.2136
            }
          },
          {
            "elSymbol": "C",
            "p3d": {
              "x": 4.2502,
              "y": 0.8767,
              "z": -2.2636
            }
          },
          {
            "elSymbol": "C",
            "p3d": {
              "x": 2.3368,
              "y": 1.7899,
              "z": -1.1199
            }
          },
          {
            "elSymbol": "C",
            "p3d": {
              "x": 2.344,
              "y": -0.5151,
              "z": -1.819
            }
          },
          {
            "elSymbol": "C",
            "p3d": {
              "x": 3.6162,
              "y": -0.3625,
              "z": -2.3439
            }
          },
          {
            "elSymbol": "C",
            "p3d": {
              "x": 3.6039,
              "y": 1.9353,
              "z": -1.6584
            }
          },
          {
            "elSymbol": "H",
            "p3d": {
              "x": 1.8411,
              "y": -1.493,
              "z": -1.8837
            }
          },
          {
            "elSymbol": "H",
            "p3d": {
              "x": 4.113,
              "y": -1.2006,
              "z": -2.8069
            }
          },
          {
            "elSymbol": "H",
            "p3d": {
              "x": 4.1107,
              "y": 2.9115,
              "z": -1.5913
            }
          },
          {
            "elSymbol": "H",
            "p3d": {
              "x": 5.2516,
              "y": 0.992,
              "z": -2.67
            }
          },
          {
            "elSymbol": "C",
            "p3d": {
              "x": 1.6301,
              "y": 2.9729,
              "z": -0.4606
            }
          },
          {
            "elSymbol": "H",
            "p3d": {
              "x": 2.3743,
              "y": 3.6775,
              "z": -0.0646
            }
          },
          {
            "elSymbol": "H",
            "p3d": {
              "x": 1.0016,
              "y": 2.6144,
              "z": 0.3512
            }
          },
          {
            "elSymbol": "H",
            "p3d": {
              "x": 1.0097,
              "y": 3.4845,
              "z": -1.1971
            }
          }
        ],
        "bonds": [
          {
            "atomIds": [
              0,
              3
            ],
            "bo": "SINGLE"
          },
          {
            "atomIds": [
              3,
              4
            ],
            "bo": "DOUBLE"
          },
          {
            "atomIds": [
              1,
              4
            ],
            "bo": "SINGLE"
          },
          {
            "atomIds": [
              1,
              5
            ],
            "bo": "DOUBLE"
          },
          {
            "atomIds": [
              2,
              5
            ],
            "bo": "SINGLE"
          },
          {
            "atomIds": [
              0,
              2
            ],
            "bo": "DOUBLE"
          },
          {
            "atomIds": [
              4,
              7
            ],
            "bo": "SINGLE"
          },
          {
            "atomIds": [
              5,
              8
            ],
            "bo": "SINGLE"
          },
          {
            "atomIds": [
              1,
              9
            ],
            "bo": "SINGLE"
          },
          {
            "atomIds": [
              3,
              6
            ],
            "bo": "SINGLE"
          },
          {
            "atomIds": [
              10,
              11
            ],
            "bo": "SINGLE"
          },
          {
            "atomIds": [
              10,
              12
            ],
            "bo": "SINGLE"
          },
          {
            "atomIds": [
              10,
              13
            ],
            "bo": "SINGLE"
          },
          {
            "atomIds": [
              2,
              10
            ],
            "bo": "SINGLE"
          }
        ]
      },
      "vertexId": 357125,
      "buildingBlockId": 36,
      "buildingBlockType": "FRAGMENT",
      "isRCV": false,
      "properties": {
        "ATTACHMENT_POINTS": "1#SubArM:1:SINGLE:0.3016%0.3831%-0.6449 "
      },
      "uniquefyingPropertyKeys": [],
      "allowedMutationTypes": [
        "DELETE",
        "EXTEND",
        "CHANGEBRANCH",
        "CHANGELINK",
        "ADDLINK",
        "DELETELINK",
        "DELETECHAIN"
      ],
      "vertexType": "MolecularFragment"
    }
  ],
  "gEdges": [
    {
      "srcAPID": 465205,
      "trgAPID": 465208,
      "bondType": "SINGLE"
    },
    {
      "srcAPID": 465207,
      "trgAPID": 465210,
      "bondType": "SINGLE"
    },
    {
      "srcAPID": 465206,
      "trgAPID": 465211,
      "bondType": "SINGLE"
    },
    {
      "srcAPID": 465209,
      "trgAPID": 465236,
      "bondType": "SINGLE"
    }
  ],
  "gRings": [],
  "symVertices": []
}

> <SMILES>
[Pt](C#O)(Cl)([P]1(OC([H])([H])C([H])([H])C([H])([H])O1)C=2C(=C(C(=C(C2C([H])([H])[H])[H])[H])[H])[H])Cl

$$$$
