M00001737
  CDK     04222209173D

 48 50  0  0  0  0  0  0  0  0999 V2000
   -1.7500   -0.7619   -0.4372 Pt  0  0  0  0  0  0  0  0  0  0  0  0
   -3.6422   -1.2138   -0.7189 C   0  0  0  0  0  0  0  0  0  0  0  0
   -4.7302   -1.5063   -0.9085 O   0  0  0  0  0  0  0  0  0  0  0  0
   -1.5053    0.9455    0.6960 O   0  0  0  0  0  0  0  0  0  0  0  0
   -2.4072    1.0045    1.7766 C   0  0  0  0  0  0  0  0  0  0  0  0
   -2.1626    1.9256    2.3235 H   0  0  0  0  0  0  0  0  0  0  0  0
   -2.2674    0.1289    2.4247 H   0  0  0  0  0  0  0  0  0  0  0  0
   -3.4346    1.0546    1.3953 H   0  0  0  0  0  0  0  0  0  0  0  0
    1.9652    0.8065    1.7128 C   0  0  0  0  0  0  0  0  0  0  0  0
    3.0115    0.4201    1.7257 H   0  0  0  0  0  0  0  0  0  0  0  0
    1.7790    1.2868    2.7027 H   0  0  0  0  0  0  0  0  0  0  0  0
    1.7849    1.8606    0.5870 C   0  0  0  0  0  0  0  0  0  0  0  0
    1.2344    2.7514    0.9790 H   0  0  0  0  0  0  0  0  0  0  0  0
    2.7807    2.2113    0.2309 H   0  0  0  0  0  0  0  0  0  0  0  0
    1.0178   -0.3250    1.5098 N   0  0  0  0  0  0  0  0  0  0  0  0
    1.0181    1.2741   -0.5490 N   0  0  0  0  0  0  0  0  0  0  0  0
    0.4361   -0.3196   -0.1367 P   0  0  0  0  0  0  0  0  0  0  0  0
    0.6386   -1.2216    2.5337 C   0  0  0  0  0  0  0  0  0  0  0  0
   -0.0471   -3.0563    4.5445 C   0  0  0  0  0  0  0  0  0  0  0  0
    1.3595   -1.2440    3.7476 C   0  0  0  0  0  0  0  0  0  0  0  0
   -0.4418   -2.1139    2.3372 C   0  0  0  0  0  0  0  0  0  0  0  0
   -0.7636   -3.0241    3.3431 C   0  0  0  0  0  0  0  0  0  0  0  0
    1.0072   -2.1611    4.7388 C   0  0  0  0  0  0  0  0  0  0  0  0
    2.1880   -0.5661    3.9212 H   0  0  0  0  0  0  0  0  0  0  0  0
   -1.0478   -2.1129    1.4233 H   0  0  0  0  0  0  0  0  0  0  0  0
   -1.5912   -3.7186    3.1882 H   0  0  0  0  0  0  0  0  0  0  0  0
    1.5672   -2.1774    5.6744 H   0  0  0  0  0  0  0  0  0  0  0  0
   -0.3108   -3.7709    5.3191 H   0  0  0  0  0  0  0  0  0  0  0  0
    1.5445   -1.5026   -1.0726 C   0  0  0  0  0  0  0  0  0  0  0  0
    1.4526   -1.3496   -2.1578 H   0  0  0  0  0  0  0  0  0  0  0  0
    2.5999   -1.3885   -0.8029 H   0  0  0  0  0  0  0  0  0  0  0  0
    1.2517   -2.5469   -0.8736 H   0  0  0  0  0  0  0  0  0  0  0  0
    0.7693    1.9616   -1.7562 C   0  0  0  0  0  0  0  0  0  0  0  0
    0.3702    3.2679   -4.2088 C   0  0  0  0  0  0  0  0  0  0  0  0
   -0.1990    1.4760   -2.6664 C   0  0  0  0  0  0  0  0  0  0  0  0
    1.5142    3.1199   -2.0717 C   0  0  0  0  0  0  0  0  0  0  0  0
    1.3063    3.7580   -3.2943 C   0  0  0  0  0  0  0  0  0  0  0  0
   -0.3802    2.1337   -3.8825 C   0  0  0  0  0  0  0  0  0  0  0  0
   -0.8450    0.6207   -2.4329 H   0  0  0  0  0  0  0  0  0  0  0  0
    2.2445    3.5213   -1.3773 H   0  0  0  0  0  0  0  0  0  0  0  0
    1.8839    4.6508   -3.5362 H   0  0  0  0  0  0  0  0  0  0  0  0
   -1.1264    1.7603   -4.5852 H   0  0  0  0  0  0  0  0  0  0  0  0
    0.2185    3.7692   -5.1604 H   0  0  0  0  0  0  0  0  0  0  0  0
   -1.8688   -2.6671   -1.7482 S   0  0  0  0  0  0  0  0  0  0  0  0
   -1.6418   -1.8629   -3.3593 C   0  0  0  0  0  0  0  0  0  0  0  0
   -0.7651   -2.2832   -3.8637 H   0  0  0  0  0  0  0  0  0  0  0  0
   -1.4964   -0.7782   -3.2432 H   0  0  0  0  0  0  0  0  0  0  0  0
   -2.5195   -2.0365   -3.9916 H   0  0  0  0  0  0  0  0  0  0  0  0
  2  3  3  0  0  0  0
  1  2  1  0  0  0  0
  5  6  1  0  0  0  0
  5  7  1  0  0  0  0
  5  8  1  0  0  0  0
  4  5  1  0  0  0  0
  1  4  1  0  0  0  0
  9 10  1  0  0  0  0
  9 15  1  0  0  0  0
 11  9  1  0  0  0  0
 12  9  1  0  0  0  0
 13 12  1  0  0  0  0
 14 12  1  0  0  0  0
 15 17  1  0  0  0  0
 16 12  1  0  0  0  0
 16 17  1  0  0  0  0
  1 17  1  0  0  0  0
 18 21  1  0  0  0  0
 21 22  2  0  0  0  0
 19 22  1  0  0  0  0
 19 23  2  0  0  0  0
 20 23  1  0  0  0  0
 18 20  2  0  0  0  0
 22 26  1  0  0  0  0
 23 27  1  0  0  0  0
 19 28  1  0  0  0  0
 20 24  1  0  0  0  0
 21 25  1  0  0  0  0
 15 18  1  0  0  0  0
 29 30  1  0  0  0  0
 29 31  1  0  0  0  0
 29 32  1  0  0  0  0
 17 29  1  0  0  0  0
 33 36  1  0  0  0  0
 36 37  2  0  0  0  0
 34 37  1  0  0  0  0
 34 38  2  0  0  0  0
 35 38  1  0  0  0  0
 33 35  2  0  0  0  0
 37 41  1  0  0  0  0
 38 42  1  0  0  0  0
 34 43  1  0  0  0  0
 35 39  1  0  0  0  0
 36 40  1  0  0  0  0
 16 33  1  0  0  0  0
 45 46  1  0  0  0  0
 45 47  1  0  0  0  0
 45 48  1  0  0  0  0
 44 45  1  0  0  0  0
  1 44  1  0  0  0  0
M  END
> <PM6_ENERGY>
-103.211

> <UID>
HNDNDAPADXFIMV-QYIZDCICNA-M

> <FITNESS>
1.14247

> <GCODE>
2348

> <GraphENC>
2348 72_1_0,80_65_1,99_2_1,85_64_1,43433_36_1,43438_31_1,43949_36_1, 72_0_80_0_SINGLE_Xlig:0_Xlig:1,72_2_99_3_SINGLE_scaff:0_MBisAminoPhosphine:1,72_1_85_0_SINGLE_Xlig:0_Xlig:1,99_0_43433_0_SINGLE_LCycloBisAminoPhosphineSubN:0_SubArS:1,99_2_43438_0_SINGLE_LBisAminoPhosphineSubR:0_SubRS:1,99_1_43949_0_SINGLE_LCycloBisAminoPhosphineSubN:0_SubArS:1, SymmetricSet [symIds=[43433, 43949]] 

> <GraphJson>
{
  "graphId": 2348,
  "gVertices": [
    {
      "lstAPs": [
        {
          "id": 58696,
          "atomPositionNumber": 0,
          "atomPositionNumberInMol": 0,
          "apClass": {
            "rule": "Xlig",
            "subClass": 0,
            "bndTyp": "SINGLE"
          },
          "dirVec": {
            "x": -2.3339,
            "y": -0.0087,
            "z": 0.8172
          }
        },
        {
          "id": 58697,
          "atomPositionNumber": 0,
          "atomPositionNumberInMol": 0,
          "apClass": {
            "rule": "Xlig",
            "subClass": 0,
            "bndTyp": "SINGLE"
          },
          "dirVec": {
            "x": 2.336,
            "y": -5.0E-4,
            "z": 0.829
          }
        },
        {
          "id": 58698,
          "atomPositionNumber": 0,
          "atomPositionNumberInMol": 0,
          "apClass": {
            "rule": "scaff",
            "subClass": 0,
            "bndTyp": "SINGLE"
          },
          "dirVec": {
            "x": -0.0095,
            "y": 0.0046,
            "z": -1.7113
          }
        }
      ],
      "lstSymAPs": [
        {
          "symIds": [
            0,
            1
          ]
        }
      ],
      "mol": {
        "atoms": [
          {
            "elSymbol": "Pt",
            "p3d": {
              "x": -0.0098,
              "y": 0.0049,
              "z": 0.6289
            }
          },
          {
            "elSymbol": "C",
            "p3d": {
              "x": -6.0E-4,
              "y": 0.0016,
              "z": 2.5609
            }
          },
          {
            "elSymbol": "O",
            "p3d": {
              "x": 0.0025,
              "y": -0.0041,
              "z": 3.6974
            }
          },
          {
            "elSymbol": "Du",
            "p3d": {
              "x": -0.007,
              "y": 1.0013,
              "z": 0.6372
            }
          },
          {
            "elSymbol": "Du",
            "p3d": {
              "x": -0.0014,
              "y": 0.9902,
              "z": 2.5698
            }
          }
        ],
        "bonds": [
          {
            "atomIds": [
              1,
              2
            ],
            "bo": "TRIPLE"
          },
          {
            "atomIds": [
              0,
              1
            ],
            "bo": "SINGLE"
          },
          {
            "atomIds": [
              3,
              0
            ],
            "bo": "SINGLE"
          },
          {
            "atomIds": [
              4,
              1
            ],
            "bo": "SINGLE"
          }
        ]
      },
      "vertexId": 72,
      "buildingBlockId": 0,
      "buildingBlockType": "SCAFFOLD",
      "isRCV": false,
      "properties": {
        "ATTACHMENT_POINTS": "1#Xlig:0:SINGLE:-2.3339%-0.0087%0.8172,Xlig:0:SINGLE:2.3360%-0.0005%0.8290,scaff:0:SINGLE:-0.0095%0.0046%-1.7113 "
      },
      "uniquefyingPropertyKeys": [],
      "allowedMutationTypes": [
        "DELETE",
        "EXTEND",
        "CHANGEBRANCH",
        "CHANGELINK",
        "ADDLINK",
        "DELETELINK",
        "DELETECHAIN"
      ],
      "vertexType": "MolecularFragment"
    },
    {
      "lstAPs": [
        {
          "id": 58699,
          "atomPositionNumber": 0,
          "atomPositionNumberInMol": 5,
          "apClass": {
            "rule": "Xlig",
            "subClass": 1,
            "bndTyp": "SINGLE"
          },
          "dirVec": {
            "x": -0.1753,
            "y": 0.0948,
            "z": -0.4464
          }
        }
      ],
      "lstSymAPs": [],
      "mol": {
        "atoms": [
          {
            "elSymbol": "O",
            "p3d": {
              "x": -0.3534,
              "y": 2.1044,
              "z": -0.7339
            }
          },
          {
            "elSymbol": "C",
            "p3d": {
              "x": -0.5345,
              "y": 2.7646,
              "z": 0.4801
            }
          },
          {
            "elSymbol": "H",
            "p3d": {
              "x": -0.3728,
              "y": 3.8337,
              "z": 0.2724
            }
          },
          {
            "elSymbol": "H",
            "p3d": {
              "x": 0.1816,
              "y": 2.4161,
              "z": 1.2384
            }
          },
          {
            "elSymbol": "H",
            "p3d": {
              "x": -1.553,
              "y": 2.6149,
              "z": 0.8489
            }
          }
        ],
        "bonds": [
          {
            "atomIds": [
              1,
              2
            ],
            "bo": "SINGLE"
          },
          {
            "atomIds": [
              1,
              3
            ],
            "bo": "SINGLE"
          },
          {
            "atomIds": [
              1,
              4
            ],
            "bo": "SINGLE"
          },
          {
            "atomIds": [
              0,
              1
            ],
            "bo": "SINGLE"
          }
        ]
      },
      "vertexId": 80,
      "buildingBlockId": 64,
      "buildingBlockType": "FRAGMENT",
      "isRCV": false,
      "properties": {
        "ATTACHMENT_POINTS": "1#Xlig:1:SINGLE:-0.1753%0.0948%-0.4464 "
      },
      "uniquefyingPropertyKeys": [],
      "allowedMutationTypes": [
        "DELETE",
        "EXTEND",
        "CHANGEBRANCH",
        "CHANGELINK",
        "ADDLINK",
        "DELETELINK",
        "DELETECHAIN"
      ],
      "vertexType": "MolecularFragment"
    },
    {
      "lstAPs": [
        {
          "id": 58700,
          "atomPositionNumber": 6,
          "atomPositionNumberInMol": 16,
          "apClass": {
            "rule": "LCycloBisAminoPhosphineSubN",
            "subClass": 0,
            "bndTyp": "SINGLE"
          },
          "dirVec": {
            "x": 5.444,
            "y": 15.1509,
            "z": 1.4318
          }
        },
        {
          "id": 58701,
          "atomPositionNumber": 7,
          "atomPositionNumberInMol": 17,
          "apClass": {
            "rule": "LCycloBisAminoPhosphineSubN",
            "subClass": 0,
            "bndTyp": "SINGLE"
          },
          "dirVec": {
            "x": 6.0759,
            "y": 19.8798,
            "z": 3.3975
          }
        },
        {
          "id": 58702,
          "atomPositionNumber": 8,
          "atomPositionNumberInMol": 18,
          "apClass": {
            "rule": "LBisAminoPhosphineSubR",
            "subClass": 0,
            "bndTyp": "SINGLE"
          },
          "dirVec": {
            "x": 8.322,
            "y": 17.0114,
            "z": 3.3102
          }
        },
        {
          "id": 58703,
          "atomPositionNumber": 8,
          "atomPositionNumberInMol": 18,
          "apClass": {
            "rule": "MBisAminoPhosphine",
            "subClass": 1,
            "bndTyp": "SINGLE"
          },
          "dirVec": {
            "x": 7.5392,
            "y": 18.0219,
            "z": 0.2376
          }
        }
      ],
      "lstSymAPs": [
        {
          "symIds": [
            0,
            1
          ]
        }
      ],
      "mol": {
        "atoms": [
          {
            "elSymbol": "C",
            "p3d": {
              "x": 4.9306,
              "y": 16.3362,
              "z": 3.6097
            }
          },
          {
            "elSymbol": "H",
            "p3d": {
              "x": 5.41,
              "y": 15.9229,
              "z": 4.4964
            }
          },
          {
            "elSymbol": "H",
            "p3d": {
              "x": 3.9543,
              "y": 15.8675,
              "z": 3.4723
            }
          },
          {
            "elSymbol": "C",
            "p3d": {
              "x": 4.7677,
              "y": 17.836,
              "z": 3.7637
            }
          },
          {
            "elSymbol": "H",
            "p3d": {
              "x": 3.8551,
              "y": 18.1933,
              "z": 3.2482
            }
          },
          {
            "elSymbol": "H",
            "p3d": {
              "x": 4.6641,
              "y": 18.1095,
              "z": 4.8111
            }
          },
          {
            "elSymbol": "N",
            "p3d": {
              "x": 5.7767,
              "y": 16.1652,
              "z": 2.3965
            }
          },
          {
            "elSymbol": "N",
            "p3d": {
              "x": 5.9524,
              "y": 18.471,
              "z": 3.179
            }
          },
          {
            "elSymbol": "P",
            "p3d": {
              "x": 6.8638,
              "y": 17.4143,
              "z": 2.2309
            }
          }
        ],
        "bonds": [
          {
            "atomIds": [
              0,
              1
            ],
            "bo": "SINGLE"
          },
          {
            "atomIds": [
              0,
              6
            ],
            "bo": "SINGLE"
          },
          {
            "atomIds": [
              2,
              0
            ],
            "bo": "SINGLE"
          },
          {
            "atomIds": [
              3,
              0
            ],
            "bo": "SINGLE"
          },
          {
            "atomIds": [
              4,
              3
            ],
            "bo": "SINGLE"
          },
          {
            "atomIds": [
              5,
              3
            ],
            "bo": "SINGLE"
          },
          {
            "atomIds": [
              6,
              8
            ],
            "bo": "SINGLE"
          },
          {
            "atomIds": [
              7,
              3
            ],
            "bo": "SINGLE"
          },
          {
            "atomIds": [
              7,
              8
            ],
            "bo": "SINGLE"
          }
        ]
      },
      "vertexId": 99,
      "buildingBlockId": 1,
      "buildingBlockType": "FRAGMENT",
      "isRCV": false,
      "properties": {
        "ATTACHMENT_POINTS": "7#LCycloBisAminoPhosphineSubN:0:SINGLE:5.4440%15.1509%1.4318 8#LCycloBisAminoPhosphineSubN:0:SINGLE:6.0759%19.8798%3.3975 9#LBisAminoPhosphineSubR:0:SINGLE:8.3220%17.0114%3.3102,MBisAminoPhosphine:1:SINGLE:7.5392%18.0219%0.2376 "
      },
      "uniquefyingPropertyKeys": [],
      "allowedMutationTypes": [
        "DELETE",
        "EXTEND",
        "CHANGEBRANCH",
        "CHANGELINK",
        "ADDLINK",
        "DELETELINK",
        "DELETECHAIN"
      ],
      "vertexType": "MolecularFragment"
    },
    {
      "lstAPs": [
        {
          "id": 58704,
          "atomPositionNumber": 0,
          "atomPositionNumberInMol": 45,
          "apClass": {
            "rule": "Xlig",
            "subClass": 1,
            "bndTyp": "SINGLE"
          },
          "dirVec": {
            "x": -0.102,
            "y": 0.0185,
            "z": -1.0265
          }
        }
      ],
      "lstSymAPs": [],
      "mol": {
        "atoms": [
          {
            "elSymbol": "S",
            "p3d": {
              "x": -0.3267,
              "y": 2.3403,
              "z": -1.0022
            }
          },
          {
            "elSymbol": "C",
            "p3d": {
              "x": -0.626,
              "y": 2.4866,
              "z": 0.7805
            }
          },
          {
            "elSymbol": "H",
            "p3d": {
              "x": 0.1766,
              "y": 3.089,
              "z": 1.2414
            }
          },
          {
            "elSymbol": "H",
            "p3d": {
              "x": -0.651,
              "y": 1.5065,
              "z": 1.2643
            }
          },
          {
            "elSymbol": "H",
            "p3d": {
              "x": -1.5658,
              "y": 2.981,
              "z": 0.9515
            }
          }
        ],
        "bonds": [
          {
            "atomIds": [
              1,
              2
            ],
            "bo": "SINGLE"
          },
          {
            "atomIds": [
              1,
              3
            ],
            "bo": "SINGLE"
          },
          {
            "atomIds": [
              1,
              4
            ],
            "bo": "SINGLE"
          },
          {
            "atomIds": [
              0,
              1
            ],
            "bo": "SINGLE"
          }
        ]
      },
      "vertexId": 85,
      "buildingBlockId": 63,
      "buildingBlockType": "FRAGMENT",
      "isRCV": false,
      "properties": {
        "ATTACHMENT_POINTS": "1#Xlig:1:SINGLE:-0.1020%0.0185%-1.0265 "
      },
      "uniquefyingPropertyKeys": [],
      "allowedMutationTypes": [
        "DELETE",
        "EXTEND",
        "CHANGEBRANCH",
        "CHANGELINK",
        "ADDLINK",
        "DELETELINK",
        "DELETECHAIN"
      ],
      "vertexType": "MolecularFragment"
    },
    {
      "lstAPs": [
        {
          "id": 58741,
          "atomPositionNumber": 0,
          "atomPositionNumberInMol": 19,
          "apClass": {
            "rule": "SubArS",
            "subClass": 1,
            "bndTyp": "SINGLE"
          },
          "dirVec": {
            "x": 0.2973,
            "y": 0.3873,
            "z": -0.6389
          }
        }
      ],
      "lstSymAPs": [],
      "mol": {
        "atoms": [
          {
            "elSymbol": "C",
            "p3d": {
              "x": 1.6995,
              "y": 0.5593,
              "z": -1.2083
            }
          },
          {
            "elSymbol": "C",
            "p3d": {
              "x": 4.2563,
              "y": 0.8754,
              "z": -2.2592
            }
          },
          {
            "elSymbol": "C",
            "p3d": {
              "x": 2.3334,
              "y": 1.79,
              "z": -1.1338
            }
          },
          {
            "elSymbol": "C",
            "p3d": {
              "x": 2.3422,
              "y": -0.5107,
              "z": -1.8125
            }
          },
          {
            "elSymbol": "C",
            "p3d": {
              "x": 3.612,
              "y": -0.3527,
              "z": -2.3321
            }
          },
          {
            "elSymbol": "C",
            "p3d": {
              "x": 3.6062,
              "y": 1.9513,
              "z": -1.6526
            }
          },
          {
            "elSymbol": "H",
            "p3d": {
              "x": 1.833,
              "y": 2.6461,
              "z": -0.6488
            }
          },
          {
            "elSymbol": "H",
            "p3d": {
              "x": 1.8361,
              "y": -1.4773,
              "z": -1.887
            }
          },
          {
            "elSymbol": "H",
            "p3d": {
              "x": 4.115,
              "y": -1.2043,
              "z": -2.8152
            }
          },
          {
            "elSymbol": "H",
            "p3d": {
              "x": 4.1097,
              "y": 2.9214,
              "z": -1.5842
            }
          },
          {
            "elSymbol": "H",
            "p3d": {
              "x": 5.2498,
              "y": 0.9926,
              "z": -2.665
            }
          }
        ],
        "bonds": [
          {
            "atomIds": [
              0,
              3
            ],
            "bo": "SINGLE"
          },
          {
            "atomIds": [
              3,
              4
            ],
            "bo": "DOUBLE"
          },
          {
            "atomIds": [
              1,
              4
            ],
            "bo": "SINGLE"
          },
          {
            "atomIds": [
              1,
              5
            ],
            "bo": "DOUBLE"
          },
          {
            "atomIds": [
              2,
              5
            ],
            "bo": "SINGLE"
          },
          {
            "atomIds": [
              0,
              2
            ],
            "bo": "DOUBLE"
          },
          {
            "atomIds": [
              4,
              8
            ],
            "bo": "SINGLE"
          },
          {
            "atomIds": [
              5,
              9
            ],
            "bo": "SINGLE"
          },
          {
            "atomIds": [
              1,
              10
            ],
            "bo": "SINGLE"
          },
          {
            "atomIds": [
              2,
              6
            ],
            "bo": "SINGLE"
          },
          {
            "atomIds": [
              3,
              7
            ],
            "bo": "SINGLE"
          }
        ]
      },
      "vertexId": 43433,
      "buildingBlockId": 35,
      "buildingBlockType": "FRAGMENT",
      "isRCV": false,
      "properties": {
        "ATTACHMENT_POINTS": "1#SubArS:1:SINGLE:0.2973%0.3873%-0.6389 "
      },
      "uniquefyingPropertyKeys": [],
      "allowedMutationTypes": [
        "DELETE",
        "EXTEND",
        "CHANGEBRANCH",
        "CHANGELINK",
        "ADDLINK",
        "DELETELINK",
        "DELETECHAIN"
      ],
      "vertexType": "MolecularFragment"
    },
    {
      "lstAPs": [
        {
          "id": 58742,
          "atomPositionNumber": 0,
          "atomPositionNumberInMol": 30,
          "apClass": {
            "rule": "SubRS",
            "subClass": 1,
            "bndTyp": "SINGLE"
          },
          "dirVec": {
            "x": 0.2865,
            "y": 0.3959,
            "z": -0.6387
          }
        }
      ],
      "lstSymAPs": [],
      "mol": {
        "atoms": [
          {
            "elSymbol": "C",
            "p3d": {
              "x": 0.3969,
              "y": -0.0496,
              "z": 0.8235
            }
          },
          {
            "elSymbol": "H",
            "p3d": {
              "x": -0.6146,
              "y": -0.163,
              "z": 1.2402
            }
          },
          {
            "elSymbol": "H",
            "p3d": {
              "x": 0.9335,
              "y": -0.9979,
              "z": 0.8998
            }
          },
          {
            "elSymbol": "H",
            "p3d": {
              "x": 0.9252,
              "y": 0.7237,
              "z": 1.3995
            }
          }
        ],
        "bonds": [
          {
            "atomIds": [
              0,
              1
            ],
            "bo": "SINGLE"
          },
          {
            "atomIds": [
              0,
              2
            ],
            "bo": "SINGLE"
          },
          {
            "atomIds": [
              0,
              3
            ],
            "bo": "SINGLE"
          }
        ]
      },
      "vertexId": 43438,
      "buildingBlockId": 30,
      "buildingBlockType": "FRAGMENT",
      "isRCV": false,
      "properties": {
        "ATTACHMENT_POINTS": "1#SubRS:1:SINGLE:0.2865%0.3959%-0.6387 "
      },
      "uniquefyingPropertyKeys": [],
      "allowedMutationTypes": [
        "DELETE",
        "EXTEND",
        "CHANGEBRANCH",
        "CHANGELINK",
        "ADDLINK",
        "DELETELINK",
        "DELETECHAIN"
      ],
      "vertexType": "MolecularFragment"
    },
    {
      "lstAPs": [
        {
          "id": 58743,
          "atomPositionNumber": 0,
          "atomPositionNumberInMol": 34,
          "apClass": {
            "rule": "SubArS",
            "subClass": 1,
            "bndTyp": "SINGLE"
          },
          "dirVec": {
            "x": 0.2973,
            "y": 0.3873,
            "z": -0.6389
          }
        }
      ],
      "lstSymAPs": [],
      "mol": {
        "atoms": [
          {
            "elSymbol": "C",
            "p3d": {
              "x": 1.6995,
              "y": 0.5593,
              "z": -1.2083
            }
          },
          {
            "elSymbol": "C",
            "p3d": {
              "x": 4.2563,
              "y": 0.8754,
              "z": -2.2592
            }
          },
          {
            "elSymbol": "C",
            "p3d": {
              "x": 2.3334,
              "y": 1.79,
              "z": -1.1338
            }
          },
          {
            "elSymbol": "C",
            "p3d": {
              "x": 2.3422,
              "y": -0.5107,
              "z": -1.8125
            }
          },
          {
            "elSymbol": "C",
            "p3d": {
              "x": 3.612,
              "y": -0.3527,
              "z": -2.3321
            }
          },
          {
            "elSymbol": "C",
            "p3d": {
              "x": 3.6062,
              "y": 1.9513,
              "z": -1.6526
            }
          },
          {
            "elSymbol": "H",
            "p3d": {
              "x": 1.833,
              "y": 2.6461,
              "z": -0.6488
            }
          },
          {
            "elSymbol": "H",
            "p3d": {
              "x": 1.8361,
              "y": -1.4773,
              "z": -1.887
            }
          },
          {
            "elSymbol": "H",
            "p3d": {
              "x": 4.115,
              "y": -1.2043,
              "z": -2.8152
            }
          },
          {
            "elSymbol": "H",
            "p3d": {
              "x": 4.1097,
              "y": 2.9214,
              "z": -1.5842
            }
          },
          {
            "elSymbol": "H",
            "p3d": {
              "x": 5.2498,
              "y": 0.9926,
              "z": -2.665
            }
          }
        ],
        "bonds": [
          {
            "atomIds": [
              0,
              3
            ],
            "bo": "SINGLE"
          },
          {
            "atomIds": [
              3,
              4
            ],
            "bo": "DOUBLE"
          },
          {
            "atomIds": [
              1,
              4
            ],
            "bo": "SINGLE"
          },
          {
            "atomIds": [
              1,
              5
            ],
            "bo": "DOUBLE"
          },
          {
            "atomIds": [
              2,
              5
            ],
            "bo": "SINGLE"
          },
          {
            "atomIds": [
              0,
              2
            ],
            "bo": "DOUBLE"
          },
          {
            "atomIds": [
              4,
              8
            ],
            "bo": "SINGLE"
          },
          {
            "atomIds": [
              5,
              9
            ],
            "bo": "SINGLE"
          },
          {
            "atomIds": [
              1,
              10
            ],
            "bo": "SINGLE"
          },
          {
            "atomIds": [
              2,
              6
            ],
            "bo": "SINGLE"
          },
          {
            "atomIds": [
              3,
              7
            ],
            "bo": "SINGLE"
          }
        ]
      },
      "vertexId": 43949,
      "buildingBlockId": 35,
      "buildingBlockType": "FRAGMENT",
      "isRCV": false,
      "properties": {
        "ATTACHMENT_POINTS": "1#SubArS:1:SINGLE:0.2973%0.3873%-0.6389 "
      },
      "uniquefyingPropertyKeys": [],
      "allowedMutationTypes": [
        "DELETE",
        "EXTEND",
        "CHANGEBRANCH",
        "CHANGELINK",
        "ADDLINK",
        "DELETELINK",
        "DELETECHAIN"
      ],
      "vertexType": "MolecularFragment"
    }
  ],
  "gEdges": [
    {
      "srcAPID": 58696,
      "trgAPID": 58699,
      "bondType": "SINGLE"
    },
    {
      "srcAPID": 58698,
      "trgAPID": 58703,
      "bondType": "SINGLE"
    },
    {
      "srcAPID": 58697,
      "trgAPID": 58704,
      "bondType": "SINGLE"
    },
    {
      "srcAPID": 58700,
      "trgAPID": 58741,
      "bondType": "SINGLE"
    },
    {
      "srcAPID": 58702,
      "trgAPID": 58742,
      "bondType": "SINGLE"
    },
    {
      "srcAPID": 58701,
      "trgAPID": 58743,
      "bondType": "SINGLE"
    }
  ],
  "gRings": [],
  "symVertices": [
    {
      "symIds": [
        43433,
        43949
      ]
    }
  ]
}

> <SMILES>
[Pt](C#O)(OC([H])([H])[H])([P]1(N(C([H])([H])C([H])([H])N1C=2C(=C(C(=C(C2[H])[H])[H])[H])[H])C=3C(=C(C(=C(C3[H])[H])[H])[H])[H])C([H])([H])[H])SC([H])([H])[H]

$$$$
