M00015242
  CDK     04222214063D

 60 62  0  0  0  0  0  0  0  0999 V2000
    3.1051    0.2617    0.4687 Pt  0  0  0  0  0  0  0  0  0  0  0  0
    4.9960    0.4798    0.7576 C   0  0  0  0  0  0  0  0  0  0  0  0
    6.1179    0.6170    0.9333 O   0  0  0  0  0  0  0  0  0  0  0  0
    3.4280   -2.0281    0.2537 Cl  0  0  0  0  0  0  0  0  0  0  0  0
    0.4934    0.2591   -1.0339 N   0  0  0  0  0  0  0  0  0  0  0  0
    0.2053   -0.2673    1.1299 N   0  0  0  0  0  0  0  0  0  0  0  0
    1.1200    0.0648    0.1741 C   0  0  0  0  0  0  0  0  0  0  0  0
   -0.9675   -0.1769   -0.9862 C   0  0  0  0  0  0  0  0  0  0  0  0
   -1.2235   -0.1932    0.6090 C   0  0  0  0  0  0  0  0  0  0  0  0
   -1.1218    2.3947    0.8943 C   0  0  0  0  0  0  0  0  0  0  0  0
   -1.8760    1.0970    1.1581 C   0  0  0  0  0  0  0  0  0  0  0  0
   -1.0868    2.6447   -0.1771 H   0  0  0  0  0  0  0  0  0  0  0  0
   -1.5982    3.2369    1.4093 H   0  0  0  0  0  0  0  0  0  0  0  0
   -0.0766    2.3586    1.2387 H   0  0  0  0  0  0  0  0  0  0  0  0
   -2.0044    0.9901    2.2572 H   0  0  0  0  0  0  0  0  0  0  0  0
   -2.9077    1.1682    0.7462 H   0  0  0  0  0  0  0  0  0  0  0  0
    0.5670   -0.6299    2.4854 C   0  0  0  0  0  0  0  0  0  0  0  0
    1.2164   -1.3643    5.0903 C   0  0  0  0  0  0  0  0  0  0  0  0
    0.3738    0.2900    3.5283 C   0  0  0  0  0  0  0  0  0  0  0  0
    1.1003   -1.9061    2.7279 C   0  0  0  0  0  0  0  0  0  0  0  0
    1.4228   -2.2642    4.0394 C   0  0  0  0  0  0  0  0  0  0  0  0
    0.6991   -0.0903    4.8327 C   0  0  0  0  0  0  0  0  0  0  0  0
   -0.0047    1.2914    3.3218 H   0  0  0  0  0  0  0  0  0  0  0  0
    1.2808   -2.6010    1.9044 H   0  0  0  0  0  0  0  0  0  0  0  0
    1.8453   -3.2495    4.2389 H   0  0  0  0  0  0  0  0  0  0  0  0
    0.5578    0.6158    5.6508 H   0  0  0  0  0  0  0  0  0  0  0  0
    1.4700   -1.6520    6.1098 H   0  0  0  0  0  0  0  0  0  0  0  0
   -3.3681    0.4314   -1.6555 C   0  0  0  0  0  0  0  0  0  0  0  0
   -1.8871    0.7747   -1.7664 C   0  0  0  0  0  0  0  0  0  0  0  0
   -3.7338    0.5302   -0.6221 H   0  0  0  0  0  0  0  0  0  0  0  0
   -3.9693    1.1092   -2.2753 H   0  0  0  0  0  0  0  0  0  0  0  0
   -3.5824   -0.5889   -1.9956 H   0  0  0  0  0  0  0  0  0  0  0  0
   -1.5945    0.7504   -2.8413 H   0  0  0  0  0  0  0  0  0  0  0  0
   -1.7181    1.8265   -1.4339 H   0  0  0  0  0  0  0  0  0  0  0  0
    1.2163    0.7947   -2.1677 C   0  0  0  0  0  0  0  0  0  0  0  0
    2.6662    1.7869   -4.3372 C   0  0  0  0  0  0  0  0  0  0  0  0
    2.4045    0.1500   -2.5645 C   0  0  0  0  0  0  0  0  0  0  0  0
    0.7737    1.9522   -2.8251 C   0  0  0  0  0  0  0  0  0  0  0  0
    1.5021    2.4352   -3.9168 C   0  0  0  0  0  0  0  0  0  0  0  0
    3.1190    0.6529   -3.6533 C   0  0  0  0  0  0  0  0  0  0  0  0
    2.7649   -0.7378   -2.0324 H   0  0  0  0  0  0  0  0  0  0  0  0
   -0.1025    2.4960   -2.4787 H   0  0  0  0  0  0  0  0  0  0  0  0
    1.1626    3.3334   -4.4327 H   0  0  0  0  0  0  0  0  0  0  0  0
    4.0382    0.1574   -3.9683 H   0  0  0  0  0  0  0  0  0  0  0  0
    3.2282    2.1706   -5.1871 H   0  0  0  0  0  0  0  0  0  0  0  0
   -0.6579   -1.6846   -3.0716 C   0  0  0  0  0  0  0  0  0  0  0  0
   -1.0290   -1.6058   -1.5946 C   0  0  0  0  0  0  0  0  0  0  0  0
    0.4086   -1.4836   -3.2387 H   0  0  0  0  0  0  0  0  0  0  0  0
   -0.8566   -2.6880   -3.4680 H   0  0  0  0  0  0  0  0  0  0  0  0
   -1.2257   -0.9718   -3.6822 H   0  0  0  0  0  0  0  0  0  0  0  0
   -2.0575   -2.0033   -1.4678 H   0  0  0  0  0  0  0  0  0  0  0  0
   -0.3580   -2.2816   -1.0228 H   0  0  0  0  0  0  0  0  0  0  0  0
   -2.5764   -1.4459    2.4567 C   0  0  0  0  0  0  0  0  0  0  0  0
   -2.0265   -1.4425    1.0345 C   0  0  0  0  0  0  0  0  0  0  0  0
   -3.3388   -0.6751    2.6149 H   0  0  0  0  0  0  0  0  0  0  0  0
   -3.0465   -2.4123    2.6828 H   0  0  0  0  0  0  0  0  0  0  0  0
   -1.7892   -1.2961    3.2077 H   0  0  0  0  0  0  0  0  0  0  0  0
   -1.3874   -2.3452    0.9117 H   0  0  0  0  0  0  0  0  0  0  0  0
   -2.8759   -1.5698    0.3292 H   0  0  0  0  0  0  0  0  0  0  0  0
    2.7650    2.5337    0.6993 Cl  0  0  0  0  0  0  0  0  0  0  0  0
  2  3  3  0  0  0  0
  1  2  1  0  0  0  0
  1  4  1  0  0  0  0
  5  7  1  0  0  0  0
  6  7  1  0  0  0  0
  8  5  1  0  0  0  0
  8  9  1  0  0  0  0
  9  6  1  0  0  0  0
  1  7  1  0  0  0  0
 10 11  1  0  0  0  0
 10 12  1  0  0  0  0
 10 13  1  0  0  0  0
 10 14  1  0  0  0  0
 11 15  1  0  0  0  0
 11 16  1  0  0  0  0
  9 11  1  0  0  0  0
 17 20  1  0  0  0  0
 20 21  2  0  0  0  0
 18 21  1  0  0  0  0
 18 22  2  0  0  0  0
 19 22  1  0  0  0  0
 17 19  2  0  0  0  0
 21 25  1  0  0  0  0
 22 26  1  0  0  0  0
 18 27  1  0  0  0  0
 19 23  1  0  0  0  0
 20 24  1  0  0  0  0
  6 17  1  0  0  0  0
 28 29  1  0  0  0  0
 28 30  1  0  0  0  0
 28 31  1  0  0  0  0
 28 32  1  0  0  0  0
 29 33  1  0  0  0  0
 29 34  1  0  0  0  0
  8 29  1  0  0  0  0
 35 38  1  0  0  0  0
 38 39  2  0  0  0  0
 36 39  1  0  0  0  0
 36 40  2  0  0  0  0
 37 40  1  0  0  0  0
 35 37  2  0  0  0  0
 39 43  1  0  0  0  0
 40 44  1  0  0  0  0
 36 45  1  0  0  0  0
 37 41  1  0  0  0  0
 38 42  1  0  0  0  0
  5 35  1  0  0  0  0
 46 47  1  0  0  0  0
 46 48  1  0  0  0  0
 46 49  1  0  0  0  0
 46 50  1  0  0  0  0
 47 51  1  0  0  0  0
 47 52  1  0  0  0  0
  8 47  1  0  0  0  0
 53 54  1  0  0  0  0
 53 55  1  0  0  0  0
 53 56  1  0  0  0  0
 53 57  1  0  0  0  0
 54 58  1  0  0  0  0
 54 59  1  0  0  0  0
  9 54  1  0  0  0  0
  1 60  1  0  0  0  0
M  END
> <PM6_ENERGY>
-80.628

> <UID>
UYYGIWDHWFWLRP-YAZIFDHUNA-L

> <FITNESS>
1.14383

> <GCODE>
16477

> <GraphENC>
16477 72_1_0,82_67_1,96_18_1,88_67_1,339274_32_1,339271_36_1,339272_32_1,338789_36_1,338797_32_1,339273_32_1, 72_0_82_0_SINGLE_Xlig:0_Xlig:1,72_2_96_2_SINGLE_scaff:0_MImidazolidinylidene:1,72_1_88_0_SINGLE_Xlig:0_Xlig:1,96_6_339274_0_SINGLE_LImidazolidinylideneSubCS:0_SubRS:1,96_1_339271_0_SINGLE_LImidazolidinylideneSubNL:0_SubArS:1,96_4_339272_0_SINGLE_LImidazolidinylideneSubCS:0_SubRS:1,96_0_338789_0_SINGLE_LImidazolidinylideneSubNL:0_SubArS:1,96_3_338797_0_SINGLE_LImidazolidinylideneSubCS:0_SubRS:1,96_5_339273_0_SINGLE_LImidazolidinylideneSubCS:0_SubRS:1, SymmetricSet [symIds=[339271, 338789]] SymmetricSet [symIds=[339274, 339272, 338797, 339273]] 

> <GraphJson>
{
  "graphId": 16477,
  "gVertices": [
    {
      "lstAPs": [
        {
          "id": 441934,
          "atomPositionNumber": 0,
          "atomPositionNumberInMol": 0,
          "apClass": {
            "rule": "Xlig",
            "subClass": 0,
            "bndTyp": "SINGLE"
          },
          "dirVec": {
            "x": -2.3339,
            "y": -0.0087,
            "z": 0.8172
          }
        },
        {
          "id": 441935,
          "atomPositionNumber": 0,
          "atomPositionNumberInMol": 0,
          "apClass": {
            "rule": "Xlig",
            "subClass": 0,
            "bndTyp": "SINGLE"
          },
          "dirVec": {
            "x": 2.336,
            "y": -5.0E-4,
            "z": 0.829
          }
        },
        {
          "id": 441936,
          "atomPositionNumber": 0,
          "atomPositionNumberInMol": 0,
          "apClass": {
            "rule": "scaff",
            "subClass": 0,
            "bndTyp": "SINGLE"
          },
          "dirVec": {
            "x": -0.0095,
            "y": 0.0046,
            "z": -1.7113
          }
        }
      ],
      "lstSymAPs": [
        {
          "symIds": [
            0,
            1
          ]
        }
      ],
      "mol": {
        "atoms": [
          {
            "elSymbol": "Pt",
            "p3d": {
              "x": -0.0098,
              "y": 0.0049,
              "z": 0.6289
            }
          },
          {
            "elSymbol": "C",
            "p3d": {
              "x": -6.0E-4,
              "y": 0.0016,
              "z": 2.5609
            }
          },
          {
            "elSymbol": "O",
            "p3d": {
              "x": 0.0025,
              "y": -0.0041,
              "z": 3.6974
            }
          },
          {
            "elSymbol": "Du",
            "p3d": {
              "x": -0.007,
              "y": 1.0013,
              "z": 0.6372
            }
          },
          {
            "elSymbol": "Du",
            "p3d": {
              "x": -0.0014,
              "y": 0.9902,
              "z": 2.5698
            }
          }
        ],
        "bonds": [
          {
            "atomIds": [
              1,
              2
            ],
            "bo": "TRIPLE"
          },
          {
            "atomIds": [
              0,
              1
            ],
            "bo": "SINGLE"
          },
          {
            "atomIds": [
              3,
              0
            ],
            "bo": "SINGLE"
          },
          {
            "atomIds": [
              4,
              1
            ],
            "bo": "SINGLE"
          }
        ]
      },
      "vertexId": 72,
      "buildingBlockId": 0,
      "buildingBlockType": "SCAFFOLD",
      "isRCV": false,
      "properties": {
        "ATTACHMENT_POINTS": "1#Xlig:0:SINGLE:-2.3339%-0.0087%0.8172,Xlig:0:SINGLE:2.3360%-0.0005%0.8290,scaff:0:SINGLE:-0.0095%0.0046%-1.7113 "
      },
      "uniquefyingPropertyKeys": [],
      "allowedMutationTypes": [
        "DELETE",
        "EXTEND",
        "CHANGEBRANCH",
        "CHANGELINK",
        "ADDLINK",
        "DELETELINK",
        "DELETECHAIN"
      ],
      "vertexType": "MolecularFragment"
    },
    {
      "lstAPs": [
        {
          "id": 441937,
          "atomPositionNumber": 0,
          "atomPositionNumberInMol": 5,
          "apClass": {
            "rule": "Xlig",
            "subClass": 1,
            "bndTyp": "SINGLE"
          },
          "dirVec": {
            "x": -0.0053,
            "y": -0.0027,
            "z": 0.63
          }
        }
      ],
      "lstSymAPs": [],
      "mol": {
        "atoms": [
          {
            "elSymbol": "Cl",
            "p3d": {
              "x": 2.3243,
              "y": -0.0063,
              "z": 0.8189
            }
          }
        ],
        "bonds": []
      },
      "vertexId": 82,
      "buildingBlockId": 66,
      "buildingBlockType": "FRAGMENT",
      "isRCV": false,
      "properties": {
        "ATTACHMENT_POINTS": "1#Xlig:1:SINGLE:-0.0053%-0.0027%0.6300 "
      },
      "uniquefyingPropertyKeys": [],
      "allowedMutationTypes": [
        "DELETE",
        "EXTEND",
        "CHANGEBRANCH",
        "CHANGELINK",
        "ADDLINK",
        "DELETELINK",
        "DELETECHAIN"
      ],
      "vertexType": "MolecularFragment"
    },
    {
      "lstAPs": [
        {
          "id": 441938,
          "atomPositionNumber": 0,
          "atomPositionNumberInMol": 6,
          "apClass": {
            "rule": "LImidazolidinylideneSubNL",
            "subClass": 0,
            "bndTyp": "SINGLE"
          },
          "dirVec": {
            "x": 10.7599,
            "y": 7.5084,
            "z": 14.0952
          }
        },
        {
          "id": 441939,
          "atomPositionNumber": 1,
          "atomPositionNumberInMol": 7,
          "apClass": {
            "rule": "LImidazolidinylideneSubNL",
            "subClass": 0,
            "bndTyp": "SINGLE"
          },
          "dirVec": {
            "x": 13.6782,
            "y": 5.3814,
            "z": 10.7894
          }
        },
        {
          "id": 441940,
          "atomPositionNumber": 2,
          "atomPositionNumberInMol": 8,
          "apClass": {
            "rule": "MImidazolidinylidene",
            "subClass": 1,
            "bndTyp": "SINGLE"
          },
          "dirVec": {
            "x": 11.802,
            "y": 8.3887,
            "z": 11.2504
          }
        },
        {
          "id": 441941,
          "atomPositionNumber": 3,
          "atomPositionNumberInMol": 9,
          "apClass": {
            "rule": "LImidazolidinylideneSubCS",
            "subClass": 0,
            "bndTyp": "SINGLE"
          },
          "dirVec": {
            "x": 10.0523,
            "y": 4.6083,
            "z": 13.2132
          }
        },
        {
          "id": 441942,
          "atomPositionNumber": 3,
          "atomPositionNumberInMol": 9,
          "apClass": {
            "rule": "LImidazolidinylideneSubCS",
            "subClass": 0,
            "bndTyp": "SINGLE"
          },
          "dirVec": {
            "x": 11.5095,
            "y": 4.767,
            "z": 15.2436
          }
        },
        {
          "id": 441943,
          "atomPositionNumber": 4,
          "atomPositionNumberInMol": 10,
          "apClass": {
            "rule": "LImidazolidinylideneSubCS",
            "subClass": 0,
            "bndTyp": "SINGLE"
          },
          "dirVec": {
            "x": 12.2856,
            "y": 3.107,
            "z": 12.3051
          }
        },
        {
          "id": 441944,
          "atomPositionNumber": 4,
          "atomPositionNumberInMol": 10,
          "apClass": {
            "rule": "LImidazolidinylideneSubCS",
            "subClass": 0,
            "bndTyp": "SINGLE"
          },
          "dirVec": {
            "x": 13.8972,
            "y": 4.3619,
            "z": 13.7098
          }
        }
      ],
      "lstSymAPs": [
        {
          "symIds": [
            0,
            1
          ]
        },
        {
          "symIds": [
            3,
            4,
            5,
            6
          ]
        }
      ],
      "mol": {
        "atoms": [
          {
            "elSymbol": "N",
            "p3d": {
              "x": 11.5933,
              "y": 6.5332,
              "z": 13.4566
            }
          },
          {
            "elSymbol": "N",
            "p3d": {
              "x": 12.7509,
              "y": 5.5461,
              "z": 11.8789
            }
          },
          {
            "elSymbol": "C",
            "p3d": {
              "x": 12.1672,
              "y": 6.7283,
              "z": 12.2433
            }
          },
          {
            "elSymbol": "C",
            "p3d": {
              "x": 11.4183,
              "y": 5.0594,
              "z": 13.7524
            }
          },
          {
            "elSymbol": "C",
            "p3d": {
              "x": 12.6103,
              "y": 4.4656,
              "z": 12.9143
            }
          }
        ],
        "bonds": [
          {
            "atomIds": [
              0,
              2
            ],
            "bo": "SINGLE"
          },
          {
            "atomIds": [
              1,
              2
            ],
            "bo": "SINGLE"
          },
          {
            "atomIds": [
              3,
              0
            ],
            "bo": "SINGLE"
          },
          {
            "atomIds": [
              3,
              4
            ],
            "bo": "SINGLE"
          },
          {
            "atomIds": [
              4,
              1
            ],
            "bo": "SINGLE"
          }
        ]
      },
      "vertexId": 96,
      "buildingBlockId": 17,
      "buildingBlockType": "FRAGMENT",
      "isRCV": false,
      "properties": {
        "ATTACHMENT_POINTS": "1#LImidazolidinylideneSubNL:0:SINGLE:10.7599%7.5084%14.0952 2#LImidazolidinylideneSubNL:0:SINGLE:13.6782%5.3814%10.7894 3#MImidazolidinylidene:1:SINGLE:11.8020%8.3887%11.2504 4#LImidazolidinylideneSubCS:0:SINGLE:10.0523%4.6083%13.2132,LImidazolidinylideneSubCS:0:SINGLE:11.5095%4.7670%15.2436 5#LImidazolidinylideneSubCS:0:SINGLE:12.2856%3.1070%12.3051,LImidazolidinylideneSubCS:0:SINGLE:13.8972%4.3619%13.7098 "
      },
      "uniquefyingPropertyKeys": [],
      "allowedMutationTypes": [
        "DELETE",
        "EXTEND",
        "CHANGEBRANCH",
        "CHANGELINK",
        "ADDLINK",
        "DELETELINK",
        "DELETECHAIN"
      ],
      "vertexType": "MolecularFragment"
    },
    {
      "lstAPs": [
        {
          "id": 441945,
          "atomPositionNumber": 0,
          "atomPositionNumberInMol": 61,
          "apClass": {
            "rule": "Xlig",
            "subClass": 1,
            "bndTyp": "SINGLE"
          },
          "dirVec": {
            "x": -0.0053,
            "y": -0.0027,
            "z": 0.63
          }
        }
      ],
      "lstSymAPs": [],
      "mol": {
        "atoms": [
          {
            "elSymbol": "Cl",
            "p3d": {
              "x": 2.3243,
              "y": -0.0063,
              "z": 0.8189
            }
          }
        ],
        "bonds": []
      },
      "vertexId": 88,
      "buildingBlockId": 66,
      "buildingBlockType": "FRAGMENT",
      "isRCV": false,
      "properties": {
        "ATTACHMENT_POINTS": "1#Xlig:1:SINGLE:-0.0053%-0.0027%0.6300 "
      },
      "uniquefyingPropertyKeys": [],
      "allowedMutationTypes": [
        "DELETE",
        "EXTEND",
        "CHANGEBRANCH",
        "CHANGELINK",
        "ADDLINK",
        "DELETELINK",
        "DELETECHAIN"
      ],
      "vertexType": "MolecularFragment"
    },
    {
      "lstAPs": [
        {
          "id": 442000,
          "atomPositionNumber": 1,
          "atomPositionNumberInMol": 12,
          "apClass": {
            "rule": "SubRS",
            "subClass": 1,
            "bndTyp": "SINGLE"
          },
          "dirVec": {
            "x": 0.2985,
            "y": 0.384,
            "z": -0.6258
          }
        }
      ],
      "lstSymAPs": [],
      "mol": {
        "atoms": [
          {
            "elSymbol": "C",
            "p3d": {
              "x": -1.0244,
              "y": -0.2225,
              "z": 1.3991
            }
          },
          {
            "elSymbol": "C",
            "p3d": {
              "x": 0.3973,
              "y": -0.042,
              "z": 0.8195
            }
          },
          {
            "elSymbol": "H",
            "p3d": {
              "x": -1.5635,
              "y": -0.9908,
              "z": 0.8263
            }
          },
          {
            "elSymbol": "H",
            "p3d": {
              "x": -0.941,
              "y": -0.535,
              "z": 2.446
            }
          },
          {
            "elSymbol": "H",
            "p3d": {
              "x": -1.5586,
              "y": 0.7335,
              "z": 1.3382
            }
          },
          {
            "elSymbol": "H",
            "p3d": {
              "x": 0.9335,
              "y": 0.7221,
              "z": 1.4011
            }
          },
          {
            "elSymbol": "H",
            "p3d": {
              "x": 0.927,
              "y": -1.0102,
              "z": 0.9001
            }
          }
        ],
        "bonds": [
          {
            "atomIds": [
              0,
              1
            ],
            "bo": "SINGLE"
          },
          {
            "atomIds": [
              0,
              2
            ],
            "bo": "SINGLE"
          },
          {
            "atomIds": [
              0,
              3
            ],
            "bo": "SINGLE"
          },
          {
            "atomIds": [
              0,
              4
            ],
            "bo": "SINGLE"
          },
          {
            "atomIds": [
              1,
              5
            ],
            "bo": "SINGLE"
          },
          {
            "atomIds": [
              1,
              6
            ],
            "bo": "SINGLE"
          }
        ]
      },
      "vertexId": 339274,
      "buildingBlockId": 31,
      "buildingBlockType": "FRAGMENT",
      "isRCV": false,
      "properties": {
        "ATTACHMENT_POINTS": "2#SubRS:1:SINGLE:0.2985%0.3840%-0.6258 "
      },
      "uniquefyingPropertyKeys": [],
      "allowedMutationTypes": [
        "DELETE",
        "EXTEND",
        "CHANGEBRANCH",
        "CHANGELINK",
        "ADDLINK",
        "DELETELINK",
        "DELETECHAIN"
      ],
      "vertexType": "MolecularFragment"
    },
    {
      "lstAPs": [
        {
          "id": 442001,
          "atomPositionNumber": 0,
          "atomPositionNumberInMol": 18,
          "apClass": {
            "rule": "SubArS",
            "subClass": 1,
            "bndTyp": "SINGLE"
          },
          "dirVec": {
            "x": 0.2973,
            "y": 0.3873,
            "z": -0.6389
          }
        }
      ],
      "lstSymAPs": [],
      "mol": {
        "atoms": [
          {
            "elSymbol": "C",
            "p3d": {
              "x": 1.6995,
              "y": 0.5593,
              "z": -1.2083
            }
          },
          {
            "elSymbol": "C",
            "p3d": {
              "x": 4.2563,
              "y": 0.8754,
              "z": -2.2592
            }
          },
          {
            "elSymbol": "C",
            "p3d": {
              "x": 2.3334,
              "y": 1.79,
              "z": -1.1338
            }
          },
          {
            "elSymbol": "C",
            "p3d": {
              "x": 2.3422,
              "y": -0.5107,
              "z": -1.8125
            }
          },
          {
            "elSymbol": "C",
            "p3d": {
              "x": 3.612,
              "y": -0.3527,
              "z": -2.3321
            }
          },
          {
            "elSymbol": "C",
            "p3d": {
              "x": 3.6062,
              "y": 1.9513,
              "z": -1.6526
            }
          },
          {
            "elSymbol": "H",
            "p3d": {
              "x": 1.833,
              "y": 2.6461,
              "z": -0.6488
            }
          },
          {
            "elSymbol": "H",
            "p3d": {
              "x": 1.8361,
              "y": -1.4773,
              "z": -1.887
            }
          },
          {
            "elSymbol": "H",
            "p3d": {
              "x": 4.115,
              "y": -1.2043,
              "z": -2.8152
            }
          },
          {
            "elSymbol": "H",
            "p3d": {
              "x": 4.1097,
              "y": 2.9214,
              "z": -1.5842
            }
          },
          {
            "elSymbol": "H",
            "p3d": {
              "x": 5.2498,
              "y": 0.9926,
              "z": -2.665
            }
          }
        ],
        "bonds": [
          {
            "atomIds": [
              0,
              3
            ],
            "bo": "SINGLE"
          },
          {
            "atomIds": [
              3,
              4
            ],
            "bo": "DOUBLE"
          },
          {
            "atomIds": [
              1,
              4
            ],
            "bo": "SINGLE"
          },
          {
            "atomIds": [
              1,
              5
            ],
            "bo": "DOUBLE"
          },
          {
            "atomIds": [
              2,
              5
            ],
            "bo": "SINGLE"
          },
          {
            "atomIds": [
              0,
              2
            ],
            "bo": "DOUBLE"
          },
          {
            "atomIds": [
              4,
              8
            ],
            "bo": "SINGLE"
          },
          {
            "atomIds": [
              5,
              9
            ],
            "bo": "SINGLE"
          },
          {
            "atomIds": [
              1,
              10
            ],
            "bo": "SINGLE"
          },
          {
            "atomIds": [
              2,
              6
            ],
            "bo": "SINGLE"
          },
          {
            "atomIds": [
              3,
              7
            ],
            "bo": "SINGLE"
          }
        ]
      },
      "vertexId": 339271,
      "buildingBlockId": 35,
      "buildingBlockType": "FRAGMENT",
      "isRCV": false,
      "properties": {
        "ATTACHMENT_POINTS": "1#SubArS:1:SINGLE:0.2973%0.3873%-0.6389 "
      },
      "uniquefyingPropertyKeys": [],
      "allowedMutationTypes": [
        "DELETE",
        "EXTEND",
        "CHANGEBRANCH",
        "CHANGELINK",
        "ADDLINK",
        "DELETELINK",
        "DELETECHAIN"
      ],
      "vertexType": "MolecularFragment"
    },
    {
      "lstAPs": [
        {
          "id": 442002,
          "atomPositionNumber": 1,
          "atomPositionNumberInMol": 30,
          "apClass": {
            "rule": "SubRS",
            "subClass": 1,
            "bndTyp": "SINGLE"
          },
          "dirVec": {
            "x": 0.2985,
            "y": 0.384,
            "z": -0.6258
          }
        }
      ],
      "lstSymAPs": [],
      "mol": {
        "atoms": [
          {
            "elSymbol": "C",
            "p3d": {
              "x": -1.0244,
              "y": -0.2225,
              "z": 1.3991
            }
          },
          {
            "elSymbol": "C",
            "p3d": {
              "x": 0.3973,
              "y": -0.042,
              "z": 0.8195
            }
          },
          {
            "elSymbol": "H",
            "p3d": {
              "x": -1.5635,
              "y": -0.9908,
              "z": 0.8263
            }
          },
          {
            "elSymbol": "H",
            "p3d": {
              "x": -0.941,
              "y": -0.535,
              "z": 2.446
            }
          },
          {
            "elSymbol": "H",
            "p3d": {
              "x": -1.5586,
              "y": 0.7335,
              "z": 1.3382
            }
          },
          {
            "elSymbol": "H",
            "p3d": {
              "x": 0.9335,
              "y": 0.7221,
              "z": 1.4011
            }
          },
          {
            "elSymbol": "H",
            "p3d": {
              "x": 0.927,
              "y": -1.0102,
              "z": 0.9001
            }
          }
        ],
        "bonds": [
          {
            "atomIds": [
              0,
              1
            ],
            "bo": "SINGLE"
          },
          {
            "atomIds": [
              0,
              2
            ],
            "bo": "SINGLE"
          },
          {
            "atomIds": [
              0,
              3
            ],
            "bo": "SINGLE"
          },
          {
            "atomIds": [
              0,
              4
            ],
            "bo": "SINGLE"
          },
          {
            "atomIds": [
              1,
              5
            ],
            "bo": "SINGLE"
          },
          {
            "atomIds": [
              1,
              6
            ],
            "bo": "SINGLE"
          }
        ]
      },
      "vertexId": 339272,
      "buildingBlockId": 31,
      "buildingBlockType": "FRAGMENT",
      "isRCV": false,
      "properties": {
        "ATTACHMENT_POINTS": "2#SubRS:1:SINGLE:0.2985%0.3840%-0.6258 "
      },
      "uniquefyingPropertyKeys": [],
      "allowedMutationTypes": [
        "DELETE",
        "EXTEND",
        "CHANGEBRANCH",
        "CHANGELINK",
        "ADDLINK",
        "DELETELINK",
        "DELETECHAIN"
      ],
      "vertexType": "MolecularFragment"
    },
    {
      "lstAPs": [
        {
          "id": 442003,
          "atomPositionNumber": 0,
          "atomPositionNumberInMol": 36,
          "apClass": {
            "rule": "SubArS",
            "subClass": 1,
            "bndTyp": "SINGLE"
          },
          "dirVec": {
            "x": 0.2973,
            "y": 0.3873,
            "z": -0.6389
          }
        }
      ],
      "lstSymAPs": [],
      "mol": {
        "atoms": [
          {
            "elSymbol": "C",
            "p3d": {
              "x": 1.6995,
              "y": 0.5593,
              "z": -1.2083
            }
          },
          {
            "elSymbol": "C",
            "p3d": {
              "x": 4.2563,
              "y": 0.8754,
              "z": -2.2592
            }
          },
          {
            "elSymbol": "C",
            "p3d": {
              "x": 2.3334,
              "y": 1.79,
              "z": -1.1338
            }
          },
          {
            "elSymbol": "C",
            "p3d": {
              "x": 2.3422,
              "y": -0.5107,
              "z": -1.8125
            }
          },
          {
            "elSymbol": "C",
            "p3d": {
              "x": 3.612,
              "y": -0.3527,
              "z": -2.3321
            }
          },
          {
            "elSymbol": "C",
            "p3d": {
              "x": 3.6062,
              "y": 1.9513,
              "z": -1.6526
            }
          },
          {
            "elSymbol": "H",
            "p3d": {
              "x": 1.833,
              "y": 2.6461,
              "z": -0.6488
            }
          },
          {
            "elSymbol": "H",
            "p3d": {
              "x": 1.8361,
              "y": -1.4773,
              "z": -1.887
            }
          },
          {
            "elSymbol": "H",
            "p3d": {
              "x": 4.115,
              "y": -1.2043,
              "z": -2.8152
            }
          },
          {
            "elSymbol": "H",
            "p3d": {
              "x": 4.1097,
              "y": 2.9214,
              "z": -1.5842
            }
          },
          {
            "elSymbol": "H",
            "p3d": {
              "x": 5.2498,
              "y": 0.9926,
              "z": -2.665
            }
          }
        ],
        "bonds": [
          {
            "atomIds": [
              0,
              3
            ],
            "bo": "SINGLE"
          },
          {
            "atomIds": [
              3,
              4
            ],
            "bo": "DOUBLE"
          },
          {
            "atomIds": [
              1,
              4
            ],
            "bo": "SINGLE"
          },
          {
            "atomIds": [
              1,
              5
            ],
            "bo": "DOUBLE"
          },
          {
            "atomIds": [
              2,
              5
            ],
            "bo": "SINGLE"
          },
          {
            "atomIds": [
              0,
              2
            ],
            "bo": "DOUBLE"
          },
          {
            "atomIds": [
              4,
              8
            ],
            "bo": "SINGLE"
          },
          {
            "atomIds": [
              5,
              9
            ],
            "bo": "SINGLE"
          },
          {
            "atomIds": [
              1,
              10
            ],
            "bo": "SINGLE"
          },
          {
            "atomIds": [
              2,
              6
            ],
            "bo": "SINGLE"
          },
          {
            "atomIds": [
              3,
              7
            ],
            "bo": "SINGLE"
          }
        ]
      },
      "vertexId": 338789,
      "buildingBlockId": 35,
      "buildingBlockType": "FRAGMENT",
      "isRCV": false,
      "properties": {
        "ATTACHMENT_POINTS": "1#SubArS:1:SINGLE:0.2973%0.3873%-0.6389 "
      },
      "uniquefyingPropertyKeys": [],
      "allowedMutationTypes": [
        "DELETE",
        "EXTEND",
        "CHANGEBRANCH",
        "CHANGELINK",
        "ADDLINK",
        "DELETELINK",
        "DELETECHAIN"
      ],
      "vertexType": "MolecularFragment"
    },
    {
      "lstAPs": [
        {
          "id": 442004,
          "atomPositionNumber": 1,
          "atomPositionNumberInMol": 48,
          "apClass": {
            "rule": "SubRS",
            "subClass": 1,
            "bndTyp": "SINGLE"
          },
          "dirVec": {
            "x": 0.2985,
            "y": 0.384,
            "z": -0.6258
          }
        }
      ],
      "lstSymAPs": [],
      "mol": {
        "atoms": [
          {
            "elSymbol": "C",
            "p3d": {
              "x": -1.0244,
              "y": -0.2225,
              "z": 1.3991
            }
          },
          {
            "elSymbol": "C",
            "p3d": {
              "x": 0.3973,
              "y": -0.042,
              "z": 0.8195
            }
          },
          {
            "elSymbol": "H",
            "p3d": {
              "x": -1.5635,
              "y": -0.9908,
              "z": 0.8263
            }
          },
          {
            "elSymbol": "H",
            "p3d": {
              "x": -0.941,
              "y": -0.535,
              "z": 2.446
            }
          },
          {
            "elSymbol": "H",
            "p3d": {
              "x": -1.5586,
              "y": 0.7335,
              "z": 1.3382
            }
          },
          {
            "elSymbol": "H",
            "p3d": {
              "x": 0.9335,
              "y": 0.7221,
              "z": 1.4011
            }
          },
          {
            "elSymbol": "H",
            "p3d": {
              "x": 0.927,
              "y": -1.0102,
              "z": 0.9001
            }
          }
        ],
        "bonds": [
          {
            "atomIds": [
              0,
              1
            ],
            "bo": "SINGLE"
          },
          {
            "atomIds": [
              0,
              2
            ],
            "bo": "SINGLE"
          },
          {
            "atomIds": [
              0,
              3
            ],
            "bo": "SINGLE"
          },
          {
            "atomIds": [
              0,
              4
            ],
            "bo": "SINGLE"
          },
          {
            "atomIds": [
              1,
              5
            ],
            "bo": "SINGLE"
          },
          {
            "atomIds": [
              1,
              6
            ],
            "bo": "SINGLE"
          }
        ]
      },
      "vertexId": 338797,
      "buildingBlockId": 31,
      "buildingBlockType": "FRAGMENT",
      "isRCV": false,
      "properties": {
        "ATTACHMENT_POINTS": "2#SubRS:1:SINGLE:0.2985%0.3840%-0.6258 "
      },
      "uniquefyingPropertyKeys": [],
      "allowedMutationTypes": [
        "DELETE",
        "EXTEND",
        "CHANGEBRANCH",
        "CHANGELINK",
        "ADDLINK",
        "DELETELINK",
        "DELETECHAIN"
      ],
      "vertexType": "MolecularFragment"
    },
    {
      "lstAPs": [
        {
          "id": 442005,
          "atomPositionNumber": 1,
          "atomPositionNumberInMol": 55,
          "apClass": {
            "rule": "SubRS",
            "subClass": 1,
            "bndTyp": "SINGLE"
          },
          "dirVec": {
            "x": 0.2985,
            "y": 0.384,
            "z": -0.6258
          }
        }
      ],
      "lstSymAPs": [],
      "mol": {
        "atoms": [
          {
            "elSymbol": "C",
            "p3d": {
              "x": -1.0244,
              "y": -0.2225,
              "z": 1.3991
            }
          },
          {
            "elSymbol": "C",
            "p3d": {
              "x": 0.3973,
              "y": -0.042,
              "z": 0.8195
            }
          },
          {
            "elSymbol": "H",
            "p3d": {
              "x": -1.5635,
              "y": -0.9908,
              "z": 0.8263
            }
          },
          {
            "elSymbol": "H",
            "p3d": {
              "x": -0.941,
              "y": -0.535,
              "z": 2.446
            }
          },
          {
            "elSymbol": "H",
            "p3d": {
              "x": -1.5586,
              "y": 0.7335,
              "z": 1.3382
            }
          },
          {
            "elSymbol": "H",
            "p3d": {
              "x": 0.9335,
              "y": 0.7221,
              "z": 1.4011
            }
          },
          {
            "elSymbol": "H",
            "p3d": {
              "x": 0.927,
              "y": -1.0102,
              "z": 0.9001
            }
          }
        ],
        "bonds": [
          {
            "atomIds": [
              0,
              1
            ],
            "bo": "SINGLE"
          },
          {
            "atomIds": [
              0,
              2
            ],
            "bo": "SINGLE"
          },
          {
            "atomIds": [
              0,
              3
            ],
            "bo": "SINGLE"
          },
          {
            "atomIds": [
              0,
              4
            ],
            "bo": "SINGLE"
          },
          {
            "atomIds": [
              1,
              5
            ],
            "bo": "SINGLE"
          },
          {
            "atomIds": [
              1,
              6
            ],
            "bo": "SINGLE"
          }
        ]
      },
      "vertexId": 339273,
      "buildingBlockId": 31,
      "buildingBlockType": "FRAGMENT",
      "isRCV": false,
      "properties": {
        "ATTACHMENT_POINTS": "2#SubRS:1:SINGLE:0.2985%0.3840%-0.6258 "
      },
      "uniquefyingPropertyKeys": [],
      "allowedMutationTypes": [
        "DELETE",
        "EXTEND",
        "CHANGEBRANCH",
        "CHANGELINK",
        "ADDLINK",
        "DELETELINK",
        "DELETECHAIN"
      ],
      "vertexType": "MolecularFragment"
    }
  ],
  "gEdges": [
    {
      "srcAPID": 441934,
      "trgAPID": 441937,
      "bondType": "SINGLE"
    },
    {
      "srcAPID": 441936,
      "trgAPID": 441940,
      "bondType": "SINGLE"
    },
    {
      "srcAPID": 441935,
      "trgAPID": 441945,
      "bondType": "SINGLE"
    },
    {
      "srcAPID": 441944,
      "trgAPID": 442000,
      "bondType": "SINGLE"
    },
    {
      "srcAPID": 441939,
      "trgAPID": 442001,
      "bondType": "SINGLE"
    },
    {
      "srcAPID": 441942,
      "trgAPID": 442002,
      "bondType": "SINGLE"
    },
    {
      "srcAPID": 441938,
      "trgAPID": 442003,
      "bondType": "SINGLE"
    },
    {
      "srcAPID": 441941,
      "trgAPID": 442004,
      "bondType": "SINGLE"
    },
    {
      "srcAPID": 441943,
      "trgAPID": 442005,
      "bondType": "SINGLE"
    }
  ],
  "gRings": [],
  "symVertices": [
    {
      "symIds": [
        339271,
        338789
      ]
    },
    {
      "symIds": [
        339274,
        339272,
        338797,
        339273
      ]
    }
  ]
}

> <SMILES>
[Pt](C#O)(Cl)([C]1N(C(C(N1C=2C(=C(C(=C(C2[H])[H])[H])[H])[H])(C(C([H])([H])[H])([H])[H])C(C([H])([H])[H])([H])[H])(C(C([H])([H])[H])([H])[H])C(C([H])([H])[H])([H])[H])C=3C(=C(C(=C(C3[H])[H])[H])[H])[H])Cl

$$$$
