M00018124
  CDK     04222215103D

 58 60  0  0  0  0  0  0  0  0999 V2000
   -2.7409    0.3781   -0.0189 Pt  0  0  0  0  0  0  0  0  0  0  0  0
   -4.6872    0.5264    0.0874 C   0  0  0  0  0  0  0  0  0  0  0  0
   -5.8218    0.6082    0.1699 O   0  0  0  0  0  0  0  0  0  0  0  0
   -2.6490    2.3538   -0.2991 C   0  0  0  0  0  0  0  0  0  0  0  0
   -2.6205    3.4918   -0.4928 N   0  0  0  0  0  0  0  0  0  0  0  0
   -0.4891    0.1755   -0.1070 P   0  0  0  0  0  0  0  0  0  0  0  0
    0.2752   -0.6328    1.1495 O   0  0  0  0  0  0  0  0  0  0  0  0
   -0.5557   -1.1158    2.1829 C   0  0  0  0  0  0  0  0  0  0  0  0
   -1.8805   -2.2135    4.3512 C   0  0  0  0  0  0  0  0  0  0  0  0
   -0.5212   -2.5151    2.3606 C   0  0  0  0  0  0  0  0  0  0  0  0
   -1.2303   -0.2497    3.0650 C   0  0  0  0  0  0  0  0  0  0  0  0
   -1.8986   -0.8309    4.1543 C   0  0  0  0  0  0  0  0  0  0  0  0
   -1.1979   -3.0502    3.4661 C   0  0  0  0  0  0  0  0  0  0  0  0
   -2.4364   -0.1937    4.8550 H   0  0  0  0  0  0  0  0  0  0  0  0
   -1.2014   -4.1283    3.6231 H   0  0  0  0  0  0  0  0  0  0  0  0
   -2.4077   -2.6443    5.2029 H   0  0  0  0  0  0  0  0  0  0  0  0
    0.1839   -3.4015    1.3940 C   0  0  0  0  0  0  0  0  0  0  0  0
   -0.5304   -3.7808    0.6394 H   0  0  0  0  0  0  0  0  0  0  0  0
    0.6301   -4.2786    1.8807 H   0  0  0  0  0  0  0  0  0  0  0  0
    0.9860   -2.8810    0.8532 H   0  0  0  0  0  0  0  0  0  0  0  0
   -1.2620    1.2287    2.8766 C   0  0  0  0  0  0  0  0  0  0  0  0
   -2.0555    1.5400    2.1696 H   0  0  0  0  0  0  0  0  0  0  0  0
   -0.2935    1.6346    2.5150 H   0  0  0  0  0  0  0  0  0  0  0  0
   -1.4731    1.7623    3.8155 H   0  0  0  0  0  0  0  0  0  0  0  0
    0.1844    1.7002    0.0950 O   0  0  0  0  0  0  0  0  0  0  0  0
    1.5201    1.8620   -0.3254 C   0  0  0  0  0  0  0  0  0  0  0  0
    4.1192    2.3945   -1.1122 C   0  0  0  0  0  0  0  0  0  0  0  0
    1.7400    2.3989   -1.6105 C   0  0  0  0  0  0  0  0  0  0  0  0
    2.5607    1.6504    0.6004 C   0  0  0  0  0  0  0  0  0  0  0  0
    3.8720    1.9122    0.1747 C   0  0  0  0  0  0  0  0  0  0  0  0
    3.0660    2.6465   -1.9944 C   0  0  0  0  0  0  0  0  0  0  0  0
    4.7016    1.7482    0.8606 H   0  0  0  0  0  0  0  0  0  0  0  0
    3.2724    3.0492   -2.9847 H   0  0  0  0  0  0  0  0  0  0  0  0
    5.1445    2.5895   -1.4273 H   0  0  0  0  0  0  0  0  0  0  0  0
    0.6065    2.7130   -2.5235 C   0  0  0  0  0  0  0  0  0  0  0  0
    0.3167    1.8406   -3.1256 H   0  0  0  0  0  0  0  0  0  0  0  0
    0.8513    3.5228   -3.2254 H   0  0  0  0  0  0  0  0  0  0  0  0
   -0.2835    3.0542   -1.9635 H   0  0  0  0  0  0  0  0  0  0  0  0
    2.2906    1.1769    1.9847 C   0  0  0  0  0  0  0  0  0  0  0  0
    1.3202    1.5555    2.3652 H   0  0  0  0  0  0  0  0  0  0  0  0
    3.0631    1.4909    2.6974 H   0  0  0  0  0  0  0  0  0  0  0  0
    2.2275    0.0752    2.0290 H   0  0  0  0  0  0  0  0  0  0  0  0
    0.1661   -0.6206   -1.6106 C   0  0  0  0  0  0  0  0  0  0  0  0
    1.2567   -1.8630   -3.8471 C   0  0  0  0  0  0  0  0  0  0  0  0
   -0.6060   -0.7150   -2.7780 C   0  0  0  0  0  0  0  0  0  0  0  0
    1.4659   -1.1395   -1.5508 C   0  0  0  0  0  0  0  0  0  0  0  0
    2.0135   -1.7624   -2.6722 C   0  0  0  0  0  0  0  0  0  0  0  0
   -0.0368   -1.3454   -3.9019 C   0  0  0  0  0  0  0  0  0  0  0  0
    2.0667   -1.0670   -0.6365 H   0  0  0  0  0  0  0  0  0  0  0  0
    3.0233   -2.1676   -2.6366 H   0  0  0  0  0  0  0  0  0  0  0  0
   -0.6148   -1.4362   -4.8210 H   0  0  0  0  0  0  0  0  0  0  0  0
    1.6831   -2.3512   -4.7255 H   0  0  0  0  0  0  0  0  0  0  0  0
   -2.0014   -0.1883   -2.8786 C   0  0  0  0  0  0  0  0  0  0  0  0
   -2.1108    0.8595   -2.5419 H   0  0  0  0  0  0  0  0  0  0  0  0
   -2.7132   -0.8156   -2.3028 H   0  0  0  0  0  0  0  0  0  0  0  0
   -2.3760   -0.1982   -3.9151 H   0  0  0  0  0  0  0  0  0  0  0  0
   -2.8978   -1.6030    0.1733 C   0  0  0  0  0  0  0  0  0  0  0  0
   -3.0142   -2.7503    0.2370 N   0  0  0  0  0  0  0  0  0  0  0  0
  2  3  3  0  0  0  0
  1  2  1  0  0  0  0
  4  5  3  0  0  0  0
  1  4  1  0  0  0  0
  1  6  1  0  0  0  0
  6  7  1  0  0  0  0
  8 11  1  0  0  0  0
 11 12  2  0  0  0  0
  9 12  1  0  0  0  0
  9 13  2  0  0  0  0
 10 13  1  0  0  0  0
  8 10  2  0  0  0  0
 12 14  1  0  0  0  0
 13 15  1  0  0  0  0
  9 16  1  0  0  0  0
 17 18  1  0  0  0  0
 17 19  1  0  0  0  0
 17 20  1  0  0  0  0
 10 17  1  0  0  0  0
 21 22  1  0  0  0  0
 21 23  1  0  0  0  0
 21 24  1  0  0  0  0
 11 21  1  0  0  0  0
  7  8  1  0  0  0  0
  6 25  1  0  0  0  0
 26 29  1  0  0  0  0
 29 30  2  0  0  0  0
 27 30  1  0  0  0  0
 27 31  2  0  0  0  0
 28 31  1  0  0  0  0
 26 28  2  0  0  0  0
 30 32  1  0  0  0  0
 31 33  1  0  0  0  0
 27 34  1  0  0  0  0
 35 36  1  0  0  0  0
 35 37  1  0  0  0  0
 35 38  1  0  0  0  0
 28 35  1  0  0  0  0
 39 40  1  0  0  0  0
 39 41  1  0  0  0  0
 39 42  1  0  0  0  0
 29 39  1  0  0  0  0
 25 26  1  0  0  0  0
 43 46  1  0  0  0  0
 46 47  2  0  0  0  0
 44 47  1  0  0  0  0
 44 48  2  0  0  0  0
 45 48  1  0  0  0  0
 43 45  2  0  0  0  0
 47 50  1  0  0  0  0
 48 51  1  0  0  0  0
 44 52  1  0  0  0  0
 46 49  1  0  0  0  0
 53 54  1  0  0  0  0
 53 55  1  0  0  0  0
 53 56  1  0  0  0  0
 45 53  1  0  0  0  0
  6 43  1  0  0  0  0
 57 58  3  0  0  0  0
  1 57  1  0  0  0  0
M  END
> <PM6_ENERGY>
-104.775

> <UID>
XVDBVPOBGWCNGQ-PKDRDPLSNA-N

> <FITNESS>
1.14053

> <GCODE>
19485

> <GraphENC>
19485 72_1_0,81_66_1,122_62_1,87_66_1,223123_63_1,222994_63_1,223003_37_1,409858_38_1,409923_38_1, 72_0_81_0_SINGLE_Xlig:0_Xlig:1,72_2_122_3_SINGLE_scaff:0_MPhosphonite:1,72_1_87_0_SINGLE_Xlig:0_Xlig:1,122_1_223123_0_SINGLE_LPhosphoniteSubO:0_LPhosphoniteSubO:1,122_0_222994_0_SINGLE_LPhosphoniteSubO:0_LPhosphoniteSubO:1,122_2_223003_0_SINGLE_LPhosphoniteSubR:0_SubArM:1,223123_1_409858_0_SINGLE_OPhosphoniteSub:1_SubArL:1,222994_1_409923_0_SINGLE_OPhosphoniteSub:1_SubArL:1, SymmetricSet [symIds=[223123, 222994]] SymmetricSet [symIds=[409858, 409923]] 

> <GraphJson>
{
  "graphId": 19485,
  "gVertices": [
    {
      "lstAPs": [
        {
          "id": 524557,
          "atomPositionNumber": 0,
          "atomPositionNumberInMol": 0,
          "apClass": {
            "rule": "Xlig",
            "subClass": 0,
            "bndTyp": "SINGLE"
          },
          "dirVec": {
            "x": -2.3339,
            "y": -0.0087,
            "z": 0.8172
          }
        },
        {
          "id": 524558,
          "atomPositionNumber": 0,
          "atomPositionNumberInMol": 0,
          "apClass": {
            "rule": "Xlig",
            "subClass": 0,
            "bndTyp": "SINGLE"
          },
          "dirVec": {
            "x": 2.336,
            "y": -5.0E-4,
            "z": 0.829
          }
        },
        {
          "id": 524559,
          "atomPositionNumber": 0,
          "atomPositionNumberInMol": 0,
          "apClass": {
            "rule": "scaff",
            "subClass": 0,
            "bndTyp": "SINGLE"
          },
          "dirVec": {
            "x": -0.0095,
            "y": 0.0046,
            "z": -1.7113
          }
        }
      ],
      "lstSymAPs": [
        {
          "symIds": [
            0,
            1
          ]
        }
      ],
      "mol": {
        "atoms": [
          {
            "elSymbol": "Pt",
            "p3d": {
              "x": -0.0098,
              "y": 0.0049,
              "z": 0.6289
            }
          },
          {
            "elSymbol": "C",
            "p3d": {
              "x": -6.0E-4,
              "y": 0.0016,
              "z": 2.5609
            }
          },
          {
            "elSymbol": "O",
            "p3d": {
              "x": 0.0025,
              "y": -0.0041,
              "z": 3.6974
            }
          },
          {
            "elSymbol": "Du",
            "p3d": {
              "x": -0.007,
              "y": 1.0013,
              "z": 0.6372
            }
          },
          {
            "elSymbol": "Du",
            "p3d": {
              "x": -0.0014,
              "y": 0.9902,
              "z": 2.5698
            }
          }
        ],
        "bonds": [
          {
            "atomIds": [
              1,
              2
            ],
            "bo": "TRIPLE"
          },
          {
            "atomIds": [
              0,
              1
            ],
            "bo": "SINGLE"
          },
          {
            "atomIds": [
              3,
              0
            ],
            "bo": "SINGLE"
          },
          {
            "atomIds": [
              4,
              1
            ],
            "bo": "SINGLE"
          }
        ]
      },
      "vertexId": 72,
      "buildingBlockId": 0,
      "buildingBlockType": "SCAFFOLD",
      "isRCV": false,
      "properties": {
        "ATTACHMENT_POINTS": "1#Xlig:0:SINGLE:-2.3339%-0.0087%0.8172,Xlig:0:SINGLE:2.3360%-0.0005%0.8290,scaff:0:SINGLE:-0.0095%0.0046%-1.7113 "
      },
      "uniquefyingPropertyKeys": [],
      "allowedMutationTypes": [
        "DELETE",
        "EXTEND",
        "CHANGEBRANCH",
        "CHANGELINK",
        "ADDLINK",
        "DELETELINK",
        "DELETECHAIN"
      ],
      "vertexType": "MolecularFragment"
    },
    {
      "lstAPs": [
        {
          "id": 524560,
          "atomPositionNumber": 0,
          "atomPositionNumberInMol": 5,
          "apClass": {
            "rule": "Xlig",
            "subClass": 1,
            "bndTyp": "SINGLE"
          },
          "dirVec": {
            "x": 0.0192,
            "y": -0.0048,
            "z": -0.5645
          }
        }
      ],
      "lstSymAPs": [],
      "mol": {
        "atoms": [
          {
            "elSymbol": "C",
            "p3d": {
              "x": -1.967,
              "y": -0.0075,
              "z": -0.4937
            }
          },
          {
            "elSymbol": "N",
            "p3d": {
              "x": -3.1263,
              "y": -0.0054,
              "z": -0.4354
            }
          },
          {
            "elSymbol": "Du",
            "p3d": {
              "x": -1.9744,
              "y": 0.9926,
              "z": -0.5036
            }
          }
        ],
        "bonds": [
          {
            "atomIds": [
              0,
              1
            ],
            "bo": "TRIPLE"
          },
          {
            "atomIds": [
              2,
              0
            ],
            "bo": "SINGLE"
          }
        ]
      },
      "vertexId": 81,
      "buildingBlockId": 65,
      "buildingBlockType": "FRAGMENT",
      "isRCV": false,
      "properties": {
        "ATTACHMENT_POINTS": "1#Xlig:1:SINGLE:0.0192%-0.0048%-0.5645 "
      },
      "uniquefyingPropertyKeys": [],
      "allowedMutationTypes": [
        "DELETE",
        "EXTEND",
        "CHANGEBRANCH",
        "CHANGELINK",
        "ADDLINK",
        "DELETELINK",
        "DELETECHAIN"
      ],
      "vertexType": "MolecularFragment"
    },
    {
      "lstAPs": [
        {
          "id": 524561,
          "atomPositionNumber": 0,
          "atomPositionNumberInMol": 8,
          "apClass": {
            "rule": "LPhosphoniteSubO",
            "subClass": 0,
            "bndTyp": "SINGLE"
          },
          "dirVec": {
            "x": 5.2814,
            "y": 0.8415,
            "z": 6.1068
          }
        },
        {
          "id": 524562,
          "atomPositionNumber": 0,
          "atomPositionNumberInMol": 8,
          "apClass": {
            "rule": "LPhosphoniteSubO",
            "subClass": 0,
            "bndTyp": "SINGLE"
          },
          "dirVec": {
            "x": 6.556,
            "y": 2.7336,
            "z": 7.2122
          }
        },
        {
          "id": 524563,
          "atomPositionNumber": 0,
          "atomPositionNumberInMol": 8,
          "apClass": {
            "rule": "LPhosphoniteSubR",
            "subClass": 0,
            "bndTyp": "SINGLE"
          },
          "dirVec": {
            "x": 4.1217,
            "y": 2.3132,
            "z": 8.1013
          }
        },
        {
          "id": 524564,
          "atomPositionNumber": 0,
          "atomPositionNumberInMol": 8,
          "apClass": {
            "rule": "MPhosphonite",
            "subClass": 1,
            "bndTyp": "SINGLE"
          },
          "dirVec": {
            "x": 4.3681,
            "y": 3.751,
            "z": 5.0597
          }
        }
      ],
      "lstSymAPs": [
        {
          "symIds": [
            0,
            1
          ]
        }
      ],
      "mol": {
        "atoms": [
          {
            "elSymbol": "P",
            "p3d": {
              "x": 5.1256,
              "y": 2.3373,
              "z": 6.5981
            }
          }
        ],
        "bonds": []
      },
      "vertexId": 122,
      "buildingBlockId": 61,
      "buildingBlockType": "FRAGMENT",
      "isRCV": false,
      "properties": {
        "ATTACHMENT_POINTS": "1#LPhosphoniteSubO:0:SINGLE:5.2814%0.8415%6.1068,LPhosphoniteSubO:0:SINGLE:6.5560%2.7336%7.2122,LPhosphoniteSubR:0:SINGLE:4.1217%2.3132%8.1013,MPhosphonite:1:SINGLE:4.3681%3.7510%5.0597 "
      },
      "uniquefyingPropertyKeys": [],
      "allowedMutationTypes": [
        "DELETE",
        "EXTEND",
        "CHANGEBRANCH",
        "CHANGELINK",
        "ADDLINK",
        "DELETELINK",
        "DELETECHAIN"
      ],
      "vertexType": "MolecularFragment"
    },
    {
      "lstAPs": [
        {
          "id": 524565,
          "atomPositionNumber": 0,
          "atomPositionNumberInMol": 59,
          "apClass": {
            "rule": "Xlig",
            "subClass": 1,
            "bndTyp": "SINGLE"
          },
          "dirVec": {
            "x": 0.0192,
            "y": -0.0048,
            "z": -0.5645
          }
        }
      ],
      "lstSymAPs": [],
      "mol": {
        "atoms": [
          {
            "elSymbol": "C",
            "p3d": {
              "x": -1.967,
              "y": -0.0075,
              "z": -0.4937
            }
          },
          {
            "elSymbol": "N",
            "p3d": {
              "x": -3.1263,
              "y": -0.0054,
              "z": -0.4354
            }
          },
          {
            "elSymbol": "Du",
            "p3d": {
              "x": -1.9744,
              "y": 0.9926,
              "z": -0.5036
            }
          }
        ],
        "bonds": [
          {
            "atomIds": [
              0,
              1
            ],
            "bo": "TRIPLE"
          },
          {
            "atomIds": [
              2,
              0
            ],
            "bo": "SINGLE"
          }
        ]
      },
      "vertexId": 87,
      "buildingBlockId": 65,
      "buildingBlockType": "FRAGMENT",
      "isRCV": false,
      "properties": {
        "ATTACHMENT_POINTS": "1#Xlig:1:SINGLE:0.0192%-0.0048%-0.5645 "
      },
      "uniquefyingPropertyKeys": [],
      "allowedMutationTypes": [
        "DELETE",
        "EXTEND",
        "CHANGEBRANCH",
        "CHANGELINK",
        "ADDLINK",
        "DELETELINK",
        "DELETECHAIN"
      ],
      "vertexType": "MolecularFragment"
    },
    {
      "lstAPs": [
        {
          "id": 524566,
          "atomPositionNumber": 0,
          "atomPositionNumberInMol": 9,
          "apClass": {
            "rule": "LPhosphoniteSubO",
            "subClass": 1,
            "bndTyp": "SINGLE"
          },
          "dirVec": {
            "x": 5.1317,
            "y": 2.3382,
            "z": 6.5862
          }
        },
        {
          "id": 524567,
          "atomPositionNumber": 0,
          "atomPositionNumberInMol": 9,
          "apClass": {
            "rule": "OPhosphoniteSub",
            "subClass": 1,
            "bndTyp": "SINGLE"
          },
          "dirVec": {
            "x": 7.6537,
            "y": 3.0103,
            "z": 6.3233
          }
        }
      ],
      "lstSymAPs": [],
      "mol": {
        "atoms": [
          {
            "elSymbol": "O",
            "p3d": {
              "x": 6.5544,
              "y": 2.7286,
              "z": 7.2144
            }
          }
        ],
        "bonds": []
      },
      "vertexId": 223123,
      "buildingBlockId": 62,
      "buildingBlockType": "FRAGMENT",
      "isRCV": false,
      "properties": {
        "ATTACHMENT_POINTS": "1#LPhosphoniteSubO:1:SINGLE:5.1317%2.3382%6.5862,OPhosphoniteSub:1:SINGLE:7.6537%3.0103%6.3233 "
      },
      "uniquefyingPropertyKeys": [],
      "allowedMutationTypes": [
        "DELETE",
        "EXTEND",
        "CHANGEBRANCH",
        "CHANGELINK",
        "ADDLINK",
        "DELETELINK",
        "DELETECHAIN"
      ],
      "vertexType": "MolecularFragment"
    },
    {
      "lstAPs": [
        {
          "id": 524568,
          "atomPositionNumber": 0,
          "atomPositionNumberInMol": 27,
          "apClass": {
            "rule": "LPhosphoniteSubO",
            "subClass": 1,
            "bndTyp": "SINGLE"
          },
          "dirVec": {
            "x": 5.1317,
            "y": 2.3382,
            "z": 6.5862
          }
        },
        {
          "id": 524569,
          "atomPositionNumber": 0,
          "atomPositionNumberInMol": 27,
          "apClass": {
            "rule": "OPhosphoniteSub",
            "subClass": 1,
            "bndTyp": "SINGLE"
          },
          "dirVec": {
            "x": 7.6537,
            "y": 3.0103,
            "z": 6.3233
          }
        }
      ],
      "lstSymAPs": [],
      "mol": {
        "atoms": [
          {
            "elSymbol": "O",
            "p3d": {
              "x": 6.5544,
              "y": 2.7286,
              "z": 7.2144
            }
          }
        ],
        "bonds": []
      },
      "vertexId": 222994,
      "buildingBlockId": 62,
      "buildingBlockType": "FRAGMENT",
      "isRCV": false,
      "properties": {
        "ATTACHMENT_POINTS": "1#LPhosphoniteSubO:1:SINGLE:5.1317%2.3382%6.5862,OPhosphoniteSub:1:SINGLE:7.6537%3.0103%6.3233 "
      },
      "uniquefyingPropertyKeys": [],
      "allowedMutationTypes": [
        "DELETE",
        "EXTEND",
        "CHANGEBRANCH",
        "CHANGELINK",
        "ADDLINK",
        "DELETELINK",
        "DELETECHAIN"
      ],
      "vertexType": "MolecularFragment"
    },
    {
      "lstAPs": [
        {
          "id": 524570,
          "atomPositionNumber": 0,
          "atomPositionNumberInMol": 45,
          "apClass": {
            "rule": "SubArM",
            "subClass": 1,
            "bndTyp": "SINGLE"
          },
          "dirVec": {
            "x": 0.3016,
            "y": 0.3831,
            "z": -0.6449
          }
        }
      ],
      "lstSymAPs": [],
      "mol": {
        "atoms": [
          {
            "elSymbol": "C",
            "p3d": {
              "x": 1.7096,
              "y": 0.5525,
              "z": -1.2136
            }
          },
          {
            "elSymbol": "C",
            "p3d": {
              "x": 4.2502,
              "y": 0.8767,
              "z": -2.2636
            }
          },
          {
            "elSymbol": "C",
            "p3d": {
              "x": 2.3368,
              "y": 1.7899,
              "z": -1.1199
            }
          },
          {
            "elSymbol": "C",
            "p3d": {
              "x": 2.344,
              "y": -0.5151,
              "z": -1.819
            }
          },
          {
            "elSymbol": "C",
            "p3d": {
              "x": 3.6162,
              "y": -0.3625,
              "z": -2.3439
            }
          },
          {
            "elSymbol": "C",
            "p3d": {
              "x": 3.6039,
              "y": 1.9353,
              "z": -1.6584
            }
          },
          {
            "elSymbol": "H",
            "p3d": {
              "x": 1.8411,
              "y": -1.493,
              "z": -1.8837
            }
          },
          {
            "elSymbol": "H",
            "p3d": {
              "x": 4.113,
              "y": -1.2006,
              "z": -2.8069
            }
          },
          {
            "elSymbol": "H",
            "p3d": {
              "x": 4.1107,
              "y": 2.9115,
              "z": -1.5913
            }
          },
          {
            "elSymbol": "H",
            "p3d": {
              "x": 5.2516,
              "y": 0.992,
              "z": -2.67
            }
          },
          {
            "elSymbol": "C",
            "p3d": {
              "x": 1.6301,
              "y": 2.9729,
              "z": -0.4606
            }
          },
          {
            "elSymbol": "H",
            "p3d": {
              "x": 2.3743,
              "y": 3.6775,
              "z": -0.0646
            }
          },
          {
            "elSymbol": "H",
            "p3d": {
              "x": 1.0016,
              "y": 2.6144,
              "z": 0.3512
            }
          },
          {
            "elSymbol": "H",
            "p3d": {
              "x": 1.0097,
              "y": 3.4845,
              "z": -1.1971
            }
          }
        ],
        "bonds": [
          {
            "atomIds": [
              0,
              3
            ],
            "bo": "SINGLE"
          },
          {
            "atomIds": [
              3,
              4
            ],
            "bo": "DOUBLE"
          },
          {
            "atomIds": [
              1,
              4
            ],
            "bo": "SINGLE"
          },
          {
            "atomIds": [
              1,
              5
            ],
            "bo": "DOUBLE"
          },
          {
            "atomIds": [
              2,
              5
            ],
            "bo": "SINGLE"
          },
          {
            "atomIds": [
              0,
              2
            ],
            "bo": "DOUBLE"
          },
          {
            "atomIds": [
              4,
              7
            ],
            "bo": "SINGLE"
          },
          {
            "atomIds": [
              5,
              8
            ],
            "bo": "SINGLE"
          },
          {
            "atomIds": [
              1,
              9
            ],
            "bo": "SINGLE"
          },
          {
            "atomIds": [
              3,
              6
            ],
            "bo": "SINGLE"
          },
          {
            "atomIds": [
              10,
              11
            ],
            "bo": "SINGLE"
          },
          {
            "atomIds": [
              10,
              12
            ],
            "bo": "SINGLE"
          },
          {
            "atomIds": [
              10,
              13
            ],
            "bo": "SINGLE"
          },
          {
            "atomIds": [
              2,
              10
            ],
            "bo": "SINGLE"
          }
        ]
      },
      "vertexId": 223003,
      "buildingBlockId": 36,
      "buildingBlockType": "FRAGMENT",
      "isRCV": false,
      "properties": {
        "ATTACHMENT_POINTS": "1#SubArM:1:SINGLE:0.3016%0.3831%-0.6449 "
      },
      "uniquefyingPropertyKeys": [],
      "allowedMutationTypes": [
        "DELETE",
        "EXTEND",
        "CHANGEBRANCH",
        "CHANGELINK",
        "ADDLINK",
        "DELETELINK",
        "DELETECHAIN"
      ],
      "vertexType": "MolecularFragment"
    },
    {
      "lstAPs": [
        {
          "id": 524619,
          "atomPositionNumber": 0,
          "atomPositionNumberInMol": 10,
          "apClass": {
            "rule": "SubArL",
            "subClass": 1,
            "bndTyp": "SINGLE"
          },
          "dirVec": {
            "x": 0.2957,
            "y": 0.3816,
            "z": -0.6358
          }
        }
      ],
      "lstSymAPs": [],
      "mol": {
        "atoms": [
          {
            "elSymbol": "C",
            "p3d": {
              "x": 1.7088,
              "y": 0.551,
              "z": -1.2192
            }
          },
          {
            "elSymbol": "C",
            "p3d": {
              "x": 4.2535,
              "y": 0.8673,
              "z": -2.2548
            }
          },
          {
            "elSymbol": "C",
            "p3d": {
              "x": 2.3329,
              "y": 1.7979,
              "z": -1.1377
            }
          },
          {
            "elSymbol": "C",
            "p3d": {
              "x": 2.3315,
              "y": -0.5114,
              "z": -1.8171
            }
          },
          {
            "elSymbol": "C",
            "p3d": {
              "x": 3.6062,
              "y": -0.3595,
              "z": -2.3299
            }
          },
          {
            "elSymbol": "C",
            "p3d": {
              "x": 3.6205,
              "y": 1.9526,
              "z": -1.657
            }
          },
          {
            "elSymbol": "H",
            "p3d": {
              "x": 4.116,
              "y": -1.2062,
              "z": -2.8187
            }
          },
          {
            "elSymbol": "H",
            "p3d": {
              "x": 4.1193,
              "y": 2.9144,
              "z": -1.5883
            }
          },
          {
            "elSymbol": "H",
            "p3d": {
              "x": 5.2485,
              "y": 0.9961,
              "z": -2.6688
            }
          },
          {
            "elSymbol": "C",
            "p3d": {
              "x": 1.6389,
              "y": 2.9732,
              "z": -0.4581
            }
          },
          {
            "elSymbol": "H",
            "p3d": {
              "x": 2.3787,
              "y": 3.6649,
              "z": -0.0604
            }
          },
          {
            "elSymbol": "H",
            "p3d": {
              "x": 1.0049,
              "y": 2.601,
              "z": 0.3676
            }
          },
          {
            "elSymbol": "H",
            "p3d": {
              "x": 1.0013,
              "y": 3.4961,
              "z": -1.199
            }
          },
          {
            "elSymbol": "C",
            "p3d": {
              "x": 1.6397,
              "y": -1.8757,
              "z": -1.9164
            }
          },
          {
            "elSymbol": "H",
            "p3d": {
              "x": 2.3747,
              "y": -2.6603,
              "z": -1.9613
            }
          },
          {
            "elSymbol": "H",
            "p3d": {
              "x": 1.0044,
              "y": -1.9015,
              "z": -2.8054
            }
          },
          {
            "elSymbol": "H",
            "p3d": {
              "x": 1.0057,
              "y": -2.0243,
              "z": -1.0149
            }
          }
        ],
        "bonds": [
          {
            "atomIds": [
              0,
              3
            ],
            "bo": "SINGLE"
          },
          {
            "atomIds": [
              3,
              4
            ],
            "bo": "DOUBLE"
          },
          {
            "atomIds": [
              1,
              4
            ],
            "bo": "SINGLE"
          },
          {
            "atomIds": [
              1,
              5
            ],
            "bo": "DOUBLE"
          },
          {
            "atomIds": [
              2,
              5
            ],
            "bo": "SINGLE"
          },
          {
            "atomIds": [
              0,
              2
            ],
            "bo": "DOUBLE"
          },
          {
            "atomIds": [
              4,
              6
            ],
            "bo": "SINGLE"
          },
          {
            "atomIds": [
              5,
              7
            ],
            "bo": "SINGLE"
          },
          {
            "atomIds": [
              1,
              8
            ],
            "bo": "SINGLE"
          },
          {
            "atomIds": [
              9,
              10
            ],
            "bo": "SINGLE"
          },
          {
            "atomIds": [
              9,
              11
            ],
            "bo": "SINGLE"
          },
          {
            "atomIds": [
              9,
              12
            ],
            "bo": "SINGLE"
          },
          {
            "atomIds": [
              2,
              9
            ],
            "bo": "SINGLE"
          },
          {
            "atomIds": [
              13,
              14
            ],
            "bo": "SINGLE"
          },
          {
            "atomIds": [
              13,
              15
            ],
            "bo": "SINGLE"
          },
          {
            "atomIds": [
              13,
              16
            ],
            "bo": "SINGLE"
          },
          {
            "atomIds": [
              3,
              13
            ],
            "bo": "SINGLE"
          }
        ]
      },
      "vertexId": 409858,
      "buildingBlockId": 37,
      "buildingBlockType": "FRAGMENT",
      "isRCV": false,
      "properties": {
        "ATTACHMENT_POINTS": "1#SubArL:1:SINGLE:0.2957%0.3816%-0.6358 "
      },
      "uniquefyingPropertyKeys": [],
      "allowedMutationTypes": [
        "DELETE",
        "EXTEND",
        "CHANGEBRANCH",
        "CHANGELINK",
        "ADDLINK",
        "DELETELINK",
        "DELETECHAIN"
      ],
      "vertexType": "MolecularFragment"
    },
    {
      "lstAPs": [
        {
          "id": 524620,
          "atomPositionNumber": 0,
          "atomPositionNumberInMol": 28,
          "apClass": {
            "rule": "SubArL",
            "subClass": 1,
            "bndTyp": "SINGLE"
          },
          "dirVec": {
            "x": 0.2957,
            "y": 0.3816,
            "z": -0.6358
          }
        }
      ],
      "lstSymAPs": [],
      "mol": {
        "atoms": [
          {
            "elSymbol": "C",
            "p3d": {
              "x": 1.7088,
              "y": 0.551,
              "z": -1.2192
            }
          },
          {
            "elSymbol": "C",
            "p3d": {
              "x": 4.2535,
              "y": 0.8673,
              "z": -2.2548
            }
          },
          {
            "elSymbol": "C",
            "p3d": {
              "x": 2.3329,
              "y": 1.7979,
              "z": -1.1377
            }
          },
          {
            "elSymbol": "C",
            "p3d": {
              "x": 2.3315,
              "y": -0.5114,
              "z": -1.8171
            }
          },
          {
            "elSymbol": "C",
            "p3d": {
              "x": 3.6062,
              "y": -0.3595,
              "z": -2.3299
            }
          },
          {
            "elSymbol": "C",
            "p3d": {
              "x": 3.6205,
              "y": 1.9526,
              "z": -1.657
            }
          },
          {
            "elSymbol": "H",
            "p3d": {
              "x": 4.116,
              "y": -1.2062,
              "z": -2.8187
            }
          },
          {
            "elSymbol": "H",
            "p3d": {
              "x": 4.1193,
              "y": 2.9144,
              "z": -1.5883
            }
          },
          {
            "elSymbol": "H",
            "p3d": {
              "x": 5.2485,
              "y": 0.9961,
              "z": -2.6688
            }
          },
          {
            "elSymbol": "C",
            "p3d": {
              "x": 1.6389,
              "y": 2.9732,
              "z": -0.4581
            }
          },
          {
            "elSymbol": "H",
            "p3d": {
              "x": 2.3787,
              "y": 3.6649,
              "z": -0.0604
            }
          },
          {
            "elSymbol": "H",
            "p3d": {
              "x": 1.0049,
              "y": 2.601,
              "z": 0.3676
            }
          },
          {
            "elSymbol": "H",
            "p3d": {
              "x": 1.0013,
              "y": 3.4961,
              "z": -1.199
            }
          },
          {
            "elSymbol": "C",
            "p3d": {
              "x": 1.6397,
              "y": -1.8757,
              "z": -1.9164
            }
          },
          {
            "elSymbol": "H",
            "p3d": {
              "x": 2.3747,
              "y": -2.6603,
              "z": -1.9613
            }
          },
          {
            "elSymbol": "H",
            "p3d": {
              "x": 1.0044,
              "y": -1.9015,
              "z": -2.8054
            }
          },
          {
            "elSymbol": "H",
            "p3d": {
              "x": 1.0057,
              "y": -2.0243,
              "z": -1.0149
            }
          }
        ],
        "bonds": [
          {
            "atomIds": [
              0,
              3
            ],
            "bo": "SINGLE"
          },
          {
            "atomIds": [
              3,
              4
            ],
            "bo": "DOUBLE"
          },
          {
            "atomIds": [
              1,
              4
            ],
            "bo": "SINGLE"
          },
          {
            "atomIds": [
              1,
              5
            ],
            "bo": "DOUBLE"
          },
          {
            "atomIds": [
              2,
              5
            ],
            "bo": "SINGLE"
          },
          {
            "atomIds": [
              0,
              2
            ],
            "bo": "DOUBLE"
          },
          {
            "atomIds": [
              4,
              6
            ],
            "bo": "SINGLE"
          },
          {
            "atomIds": [
              5,
              7
            ],
            "bo": "SINGLE"
          },
          {
            "atomIds": [
              1,
              8
            ],
            "bo": "SINGLE"
          },
          {
            "atomIds": [
              9,
              10
            ],
            "bo": "SINGLE"
          },
          {
            "atomIds": [
              9,
              11
            ],
            "bo": "SINGLE"
          },
          {
            "atomIds": [
              9,
              12
            ],
            "bo": "SINGLE"
          },
          {
            "atomIds": [
              2,
              9
            ],
            "bo": "SINGLE"
          },
          {
            "atomIds": [
              13,
              14
            ],
            "bo": "SINGLE"
          },
          {
            "atomIds": [
              13,
              15
            ],
            "bo": "SINGLE"
          },
          {
            "atomIds": [
              13,
              16
            ],
            "bo": "SINGLE"
          },
          {
            "atomIds": [
              3,
              13
            ],
            "bo": "SINGLE"
          }
        ]
      },
      "vertexId": 409923,
      "buildingBlockId": 37,
      "buildingBlockType": "FRAGMENT",
      "isRCV": false,
      "properties": {
        "ATTACHMENT_POINTS": "1#SubArL:1:SINGLE:0.2957%0.3816%-0.6358 "
      },
      "uniquefyingPropertyKeys": [],
      "allowedMutationTypes": [
        "DELETE",
        "EXTEND",
        "CHANGEBRANCH",
        "CHANGELINK",
        "ADDLINK",
        "DELETELINK",
        "DELETECHAIN"
      ],
      "vertexType": "MolecularFragment"
    }
  ],
  "gEdges": [
    {
      "srcAPID": 524557,
      "trgAPID": 524560,
      "bondType": "SINGLE"
    },
    {
      "srcAPID": 524559,
      "trgAPID": 524564,
      "bondType": "SINGLE"
    },
    {
      "srcAPID": 524558,
      "trgAPID": 524565,
      "bondType": "SINGLE"
    },
    {
      "srcAPID": 524562,
      "trgAPID": 524566,
      "bondType": "SINGLE"
    },
    {
      "srcAPID": 524561,
      "trgAPID": 524568,
      "bondType": "SINGLE"
    },
    {
      "srcAPID": 524563,
      "trgAPID": 524570,
      "bondType": "SINGLE"
    },
    {
      "srcAPID": 524567,
      "trgAPID": 524619,
      "bondType": "SINGLE"
    },
    {
      "srcAPID": 524569,
      "trgAPID": 524620,
      "bondType": "SINGLE"
    }
  ],
  "gRings": [],
  "symVertices": [
    {
      "symIds": [
        223123,
        222994
      ]
    },
    {
      "symIds": [
        409858,
        409923
      ]
    }
  ]
}

> <SMILES>
[Pt](C#O)(C#N)([P](OC=1C(=C(C(=C(C1C([H])([H])[H])[H])[H])[H])C([H])([H])[H])(OC=2C(=C(C(=C(C2C([H])([H])[H])[H])[H])[H])C([H])([H])[H])C=3C(=C(C(=C(C3C([H])([H])[H])[H])[H])[H])[H])C#N

$$$$
