M00015434
  CDK     04222214103D

 52 57  0  0  0  0  0  0  0  0999 V2000
   -3.1731    1.2319    0.0362 Pt  0  0  0  0  0  0  0  0  0  0  0  0
   -5.1165    1.3756    0.2895 C   0  0  0  0  0  0  0  0  0  0  0  0
   -6.2440    1.4618    0.4206 O   0  0  0  0  0  0  0  0  0  0  0  0
   -3.3474    3.4831   -0.5947 Cl  0  0  0  0  0  0  0  0  0  0  0  0
   -0.9211    1.1158   -0.3474 P   0  0  0  0  0  0  0  0  0  0  0  0
    0.0260    0.9539    1.1078 N   0  0  0  0  0  0  0  0  0  0  0  0
    1.4455    0.7291    1.1708 C   0  0  0  0  0  0  0  0  0  0  0  0
    2.3792    0.5798    0.1441 C   0  0  0  0  0  0  0  0  0  0  0  0
    2.1102    0.5921   -0.9082 H   0  0  0  0  0  0  0  0  0  0  0  0
    3.7135    0.3788    0.5141 C   0  0  0  0  0  0  0  0  0  0  0  0
    4.4654    0.2561   -0.2669 H   0  0  0  0  0  0  0  0  0  0  0  0
    4.1067    0.3257    1.8592 C   0  0  0  0  0  0  0  0  0  0  0  0
    5.1558    0.1675    2.1043 H   0  0  0  0  0  0  0  0  0  0  0  0
    3.1703    0.4674    2.8876 C   0  0  0  0  0  0  0  0  0  0  0  0
    3.4748    0.4204    3.9316 H   0  0  0  0  0  0  0  0  0  0  0  0
    1.8343    0.6693    2.5512 C   0  0  0  0  0  0  0  0  0  0  0  0
    0.6346    0.8509    3.3550 C   0  0  0  0  0  0  0  0  0  0  0  0
    0.4225    0.8861    4.7314 C   0  0  0  0  0  0  0  0  0  0  0  0
    1.2543    0.7543    5.4207 H   0  0  0  0  0  0  0  0  0  0  0  0
   -0.8761    1.0941    5.2035 C   0  0  0  0  0  0  0  0  0  0  0  0
   -1.0618    1.1219    6.2764 H   0  0  0  0  0  0  0  0  0  0  0  0
   -1.9476    1.2690    4.3146 C   0  0  0  0  0  0  0  0  0  0  0  0
   -2.9505    1.4305    4.7135 H   0  0  0  0  0  0  0  0  0  0  0  0
   -1.7669    1.2412    2.9275 C   0  0  0  0  0  0  0  0  0  0  0  0
   -2.6312    1.3834    2.2688 H   0  0  0  0  0  0  0  0  0  0  0  0
   -0.4712    1.0227    2.4566 C   0  0  0  0  0  0  0  0  0  0  0  0
   -0.3104    2.6739   -1.1512 C   0  0  0  0  0  0  0  0  0  0  0  0
   -0.4823    3.5429   -0.4850 H   0  0  0  0  0  0  0  0  0  0  0  0
    0.7629    2.6479   -1.3856 H   0  0  0  0  0  0  0  0  0  0  0  0
   -0.8652    2.9024   -2.0818 H   0  0  0  0  0  0  0  0  0  0  0  0
   -0.4777   -0.2203   -1.3863 N   0  0  0  0  0  0  0  0  0  0  0  0
   -0.2809   -1.5794   -0.9407 C   0  0  0  0  0  0  0  0  0  0  0  0
   -0.4454   -2.1480    0.3242 C   0  0  0  0  0  0  0  0  0  0  0  0
   -0.8043   -1.5890    1.1875 H   0  0  0  0  0  0  0  0  0  0  0  0
   -0.1570   -3.5091    0.4594 C   0  0  0  0  0  0  0  0  0  0  0  0
   -0.2825   -3.9799    1.4358 H   0  0  0  0  0  0  0  0  0  0  0  0
    0.2813   -4.2844   -0.6257 C   0  0  0  0  0  0  0  0  0  0  0  0
    0.4960   -5.3411   -0.4755 H   0  0  0  0  0  0  0  0  0  0  0  0
    0.4346   -3.7195   -1.8934 C   0  0  0  0  0  0  0  0  0  0  0  0
    0.7632   -4.3204   -2.7386 H   0  0  0  0  0  0  0  0  0  0  0  0
    0.1514   -2.3647   -2.0589 C   0  0  0  0  0  0  0  0  0  0  0  0
    0.1808   -1.4956   -3.2243 C   0  0  0  0  0  0  0  0  0  0  0  0
    0.4964   -1.7345   -4.5589 C   0  0  0  0  0  0  0  0  0  0  0  0
    0.8138   -2.7251   -4.8801 H   0  0  0  0  0  0  0  0  0  0  0  0
    0.3901   -0.6827   -5.4738 C   0  0  0  0  0  0  0  0  0  0  0  0
    0.6345   -0.8519   -6.5213 H   0  0  0  0  0  0  0  0  0  0  0  0
   -0.0416    0.5849   -5.0607 C   0  0  0  0  0  0  0  0  0  0  0  0
   -0.1354    1.3838   -5.7978 H   0  0  0  0  0  0  0  0  0  0  0  0
   -0.3650    0.8540   -3.7261 C   0  0  0  0  0  0  0  0  0  0  0  0
   -0.7254    1.8446   -3.4552 H   0  0  0  0  0  0  0  0  0  0  0  0
   -0.2338   -0.1854   -2.8036 C   0  0  0  0  0  0  0  0  0  0  0  0
   -3.4839   -0.9661    0.7496 Cl  0  0  0  0  0  0  0  0  0  0  0  0
  2  3  3  0  0  0  0
  1  2  1  0  0  0  0
  1  4  1  0  0  0  0
  1  5  1  0  0  0  0
  7  6  1  0  0  0  0
  8  7  1  0  0  0  0
  9  8  1  0  0  0  0
 10  8  2  0  0  0  0
 11 10  1  0  0  0  0
 12 10  1  0  0  0  0
 13 12  1  0  0  0  0
 14 12  2  0  0  0  0
 15 14  1  0  0  0  0
 16  7  2  0  0  0  0
 16 14  1  0  0  0  0
 17 16  1  0  0  0  0
 17 18  1  0  0  0  0
 17 26  2  0  0  0  0
 19 18  1  0  0  0  0
 20 18  2  0  0  0  0
 21 20  1  0  0  0  0
 22 20  1  0  0  0  0
 23 22  1  0  0  0  0
 24 22  2  0  0  0  0
 24 26  1  0  0  0  0
 25 24  1  0  0  0  0
 26  6  1  0  0  0  0
  5  6  1  0  0  0  0
 27 28  1  0  0  0  0
 27 29  1  0  0  0  0
 27 30  1  0  0  0  0
  5 27  1  0  0  0  0
 32 31  1  0  0  0  0
 33 32  1  0  0  0  0
 34 33  1  0  0  0  0
 35 33  2  0  0  0  0
 36 35  1  0  0  0  0
 37 35  1  0  0  0  0
 38 37  1  0  0  0  0
 39 37  2  0  0  0  0
 40 39  1  0  0  0  0
 41 32  2  0  0  0  0
 41 39  1  0  0  0  0
 42 41  1  0  0  0  0
 42 43  1  0  0  0  0
 42 51  2  0  0  0  0
 44 43  1  0  0  0  0
 45 43  2  0  0  0  0
 46 45  1  0  0  0  0
 47 45  1  0  0  0  0
 48 47  1  0  0  0  0
 49 47  2  0  0  0  0
 49 51  1  0  0  0  0
 50 49  1  0  0  0  0
 51 31  1  0  0  0  0
  5 31  1  0  0  0  0
  1 52  1  0  0  0  0
M  END
> <PM6_ENERGY>
149.795

> <UID>
JFMXDUKDPAYCMF-BDTIWCPCNA-L

> <FITNESS>
1.13836

> <GCODE>
16669

> <GraphENC>
16669 72_1_0,82_67_1,100_3_1,88_67_1,343147_11_1,342643_31_1,342638_11_1, 72_0_82_0_SINGLE_Xlig:0_Xlig:1,72_2_100_3_SINGLE_scaff:0_MBisAminoPhosphine:1,72_1_88_0_SINGLE_Xlig:0_Xlig:1,100_1_343147_0_SINGLE_LBisAminoPhosphineN:0_LAminoPhosphineCycloN:1,100_2_342643_0_SINGLE_LBisAminoPhosphineSubR:0_SubRS:1,100_0_342638_0_SINGLE_LBisAminoPhosphineN:0_LAminoPhosphineCycloN:1, SymmetricSet [symIds=[343147, 342638]] 

> <GraphJson>
{
  "graphId": 16669,
  "gVertices": [
    {
      "lstAPs": [
        {
          "id": 446875,
          "atomPositionNumber": 0,
          "atomPositionNumberInMol": 0,
          "apClass": {
            "rule": "Xlig",
            "subClass": 0,
            "bndTyp": "SINGLE"
          },
          "dirVec": {
            "x": -2.3339,
            "y": -0.0087,
            "z": 0.8172
          }
        },
        {
          "id": 446876,
          "atomPositionNumber": 0,
          "atomPositionNumberInMol": 0,
          "apClass": {
            "rule": "Xlig",
            "subClass": 0,
            "bndTyp": "SINGLE"
          },
          "dirVec": {
            "x": 2.336,
            "y": -5.0E-4,
            "z": 0.829
          }
        },
        {
          "id": 446877,
          "atomPositionNumber": 0,
          "atomPositionNumberInMol": 0,
          "apClass": {
            "rule": "scaff",
            "subClass": 0,
            "bndTyp": "SINGLE"
          },
          "dirVec": {
            "x": -0.0095,
            "y": 0.0046,
            "z": -1.7113
          }
        }
      ],
      "lstSymAPs": [
        {
          "symIds": [
            0,
            1
          ]
        }
      ],
      "mol": {
        "atoms": [
          {
            "elSymbol": "Pt",
            "p3d": {
              "x": -0.0098,
              "y": 0.0049,
              "z": 0.6289
            }
          },
          {
            "elSymbol": "C",
            "p3d": {
              "x": -6.0E-4,
              "y": 0.0016,
              "z": 2.5609
            }
          },
          {
            "elSymbol": "O",
            "p3d": {
              "x": 0.0025,
              "y": -0.0041,
              "z": 3.6974
            }
          },
          {
            "elSymbol": "Du",
            "p3d": {
              "x": -0.007,
              "y": 1.0013,
              "z": 0.6372
            }
          },
          {
            "elSymbol": "Du",
            "p3d": {
              "x": -0.0014,
              "y": 0.9902,
              "z": 2.5698
            }
          }
        ],
        "bonds": [
          {
            "atomIds": [
              1,
              2
            ],
            "bo": "TRIPLE"
          },
          {
            "atomIds": [
              0,
              1
            ],
            "bo": "SINGLE"
          },
          {
            "atomIds": [
              3,
              0
            ],
            "bo": "SINGLE"
          },
          {
            "atomIds": [
              4,
              1
            ],
            "bo": "SINGLE"
          }
        ]
      },
      "vertexId": 72,
      "buildingBlockId": 0,
      "buildingBlockType": "SCAFFOLD",
      "isRCV": false,
      "properties": {
        "ATTACHMENT_POINTS": "1#Xlig:0:SINGLE:-2.3339%-0.0087%0.8172,Xlig:0:SINGLE:2.3360%-0.0005%0.8290,scaff:0:SINGLE:-0.0095%0.0046%-1.7113 "
      },
      "uniquefyingPropertyKeys": [],
      "allowedMutationTypes": [
        "DELETE",
        "EXTEND",
        "CHANGEBRANCH",
        "CHANGELINK",
        "ADDLINK",
        "DELETELINK",
        "DELETECHAIN"
      ],
      "vertexType": "MolecularFragment"
    },
    {
      "lstAPs": [
        {
          "id": 446878,
          "atomPositionNumber": 0,
          "atomPositionNumberInMol": 5,
          "apClass": {
            "rule": "Xlig",
            "subClass": 1,
            "bndTyp": "SINGLE"
          },
          "dirVec": {
            "x": -0.0053,
            "y": -0.0027,
            "z": 0.63
          }
        }
      ],
      "lstSymAPs": [],
      "mol": {
        "atoms": [
          {
            "elSymbol": "Cl",
            "p3d": {
              "x": 2.3243,
              "y": -0.0063,
              "z": 0.8189
            }
          }
        ],
        "bonds": []
      },
      "vertexId": 82,
      "buildingBlockId": 66,
      "buildingBlockType": "FRAGMENT",
      "isRCV": false,
      "properties": {
        "ATTACHMENT_POINTS": "1#Xlig:1:SINGLE:-0.0053%-0.0027%0.6300 "
      },
      "uniquefyingPropertyKeys": [],
      "allowedMutationTypes": [
        "DELETE",
        "EXTEND",
        "CHANGEBRANCH",
        "CHANGELINK",
        "ADDLINK",
        "DELETELINK",
        "DELETECHAIN"
      ],
      "vertexType": "MolecularFragment"
    },
    {
      "lstAPs": [
        {
          "id": 446879,
          "atomPositionNumber": 0,
          "atomPositionNumberInMol": 6,
          "apClass": {
            "rule": "LBisAminoPhosphineN",
            "subClass": 0,
            "bndTyp": "SINGLE"
          },
          "dirVec": {
            "x": -1.9272,
            "y": -0.2351,
            "z": 5.6045
          }
        },
        {
          "id": 446880,
          "atomPositionNumber": 0,
          "atomPositionNumberInMol": 6,
          "apClass": {
            "rule": "LBisAminoPhosphineN",
            "subClass": 0,
            "bndTyp": "SINGLE"
          },
          "dirVec": {
            "x": -1.4136,
            "y": -2.2231,
            "z": 3.8983
          }
        },
        {
          "id": 446881,
          "atomPositionNumber": 0,
          "atomPositionNumberInMol": 6,
          "apClass": {
            "rule": "LBisAminoPhosphineSubR",
            "subClass": 0,
            "bndTyp": "SINGLE"
          },
          "dirVec": {
            "x": -3.1852,
            "y": -0.3594,
            "z": 3.1924
          }
        },
        {
          "id": 446882,
          "atomPositionNumber": 0,
          "atomPositionNumberInMol": 6,
          "apClass": {
            "rule": "MBisAminoPhosphine",
            "subClass": 1,
            "bndTyp": "SINGLE"
          },
          "dirVec": {
            "x": 0.1796,
            "y": 0.6567,
            "z": 3.3484
          }
        }
      ],
      "lstSymAPs": [
        {
          "symIds": [
            0,
            1
          ]
        }
      ],
      "mol": {
        "atoms": [
          {
            "elSymbol": "P",
            "p3d": {
              "x": -1.6038,
              "y": -0.5663,
              "z": 4.0324
            }
          }
        ],
        "bonds": []
      },
      "vertexId": 100,
      "buildingBlockId": 2,
      "buildingBlockType": "FRAGMENT",
      "isRCV": false,
      "properties": {
        "ATTACHMENT_POINTS": "1#LBisAminoPhosphineN:0:SINGLE:-1.9272%-0.2351%5.6045,LBisAminoPhosphineN:0:SINGLE:-1.4136%-2.2231%3.8983,LBisAminoPhosphineSubR:0:SINGLE:-3.1852%-0.3594%3.1924,MBisAminoPhosphine:1:SINGLE:0.1796%0.6567%3.3484 "
      },
      "uniquefyingPropertyKeys": [],
      "allowedMutationTypes": [
        "DELETE",
        "EXTEND",
        "CHANGEBRANCH",
        "CHANGELINK",
        "ADDLINK",
        "DELETELINK",
        "DELETECHAIN"
      ],
      "vertexType": "MolecularFragment"
    },
    {
      "lstAPs": [
        {
          "id": 446883,
          "atomPositionNumber": 0,
          "atomPositionNumberInMol": 53,
          "apClass": {
            "rule": "Xlig",
            "subClass": 1,
            "bndTyp": "SINGLE"
          },
          "dirVec": {
            "x": -0.0053,
            "y": -0.0027,
            "z": 0.63
          }
        }
      ],
      "lstSymAPs": [],
      "mol": {
        "atoms": [
          {
            "elSymbol": "Cl",
            "p3d": {
              "x": 2.3243,
              "y": -0.0063,
              "z": 0.8189
            }
          }
        ],
        "bonds": []
      },
      "vertexId": 88,
      "buildingBlockId": 66,
      "buildingBlockType": "FRAGMENT",
      "isRCV": false,
      "properties": {
        "ATTACHMENT_POINTS": "1#Xlig:1:SINGLE:-0.0053%-0.0027%0.6300 "
      },
      "uniquefyingPropertyKeys": [],
      "allowedMutationTypes": [
        "DELETE",
        "EXTEND",
        "CHANGEBRANCH",
        "CHANGELINK",
        "ADDLINK",
        "DELETELINK",
        "DELETECHAIN"
      ],
      "vertexType": "MolecularFragment"
    },
    {
      "lstAPs": [
        {
          "id": 446920,
          "atomPositionNumber": 0,
          "atomPositionNumberInMol": 7,
          "apClass": {
            "rule": "LAminoPhosphineCycloN",
            "subClass": 1,
            "bndTyp": "SINGLE"
          },
          "dirVec": {
            "x": 6.1199,
            "y": 9.1336,
            "z": -2.0435
          }
        }
      ],
      "lstSymAPs": [],
      "mol": {
        "atoms": [
          {
            "elSymbol": "N",
            "p3d": {
              "x": 5.8505,
              "y": 8.2355,
              "z": -3.4594
            }
          },
          {
            "elSymbol": "C",
            "p3d": {
              "x": 4.8225,
              "y": 7.2426,
              "z": -3.5412
            }
          },
          {
            "elSymbol": "C",
            "p3d": {
              "x": 4.1523,
              "y": 6.5371,
              "z": -2.5564
            }
          },
          {
            "elSymbol": "H",
            "p3d": {
              "x": 4.3784,
              "y": 6.7128,
              "z": -1.5122
            }
          },
          {
            "elSymbol": "C",
            "p3d": {
              "x": 3.2111,
              "y": 5.6125,
              "z": -2.9044
            }
          },
          {
            "elSymbol": "H",
            "p3d": {
              "x": 2.6898,
              "y": 5.0632,
              "z": -2.1205
            }
          },
          {
            "elSymbol": "C",
            "p3d": {
              "x": 2.8931,
              "y": 5.3499,
              "z": -4.2772
            }
          },
          {
            "elSymbol": "H",
            "p3d": {
              "x": 2.1461,
              "y": 4.6131,
              "z": -4.5621
            }
          },
          {
            "elSymbol": "C",
            "p3d": {
              "x": 3.5744,
              "y": 6.0736,
              "z": -5.2446
            }
          },
          {
            "elSymbol": "H",
            "p3d": {
              "x": 3.3488,
              "y": 5.9043,
              "z": -6.2871
            }
          },
          {
            "elSymbol": "C",
            "p3d": {
              "x": 4.5213,
              "y": 6.9735,
              "z": -4.8917
            }
          },
          {
            "elSymbol": "C",
            "p3d": {
              "x": 5.318,
              "y": 7.9347,
              "z": -5.6815
            }
          },
          {
            "elSymbol": "C",
            "p3d": {
              "x": 5.3868,
              "y": 8.1589,
              "z": -7.0529
            }
          },
          {
            "elSymbol": "H",
            "p3d": {
              "x": 4.7987,
              "y": 7.5735,
              "z": -7.7667
            }
          },
          {
            "elSymbol": "C",
            "p3d": {
              "x": 6.2214,
              "y": 9.1759,
              "z": -7.4935
            }
          },
          {
            "elSymbol": "H",
            "p3d": {
              "x": 6.2395,
              "y": 9.421,
              "z": -8.5556
            }
          },
          {
            "elSymbol": "C",
            "p3d": {
              "x": 7.018,
              "y": 9.8755,
              "z": -6.613
            }
          },
          {
            "elSymbol": "H",
            "p3d": {
              "x": 7.7039,
              "y": 10.6248,
              "z": -7.0211
            }
          },
          {
            "elSymbol": "C",
            "p3d": {
              "x": 6.9587,
              "y": 9.6342,
              "z": -5.2762
            }
          },
          {
            "elSymbol": "H",
            "p3d": {
              "x": 7.5802,
              "y": 10.2259,
              "z": -4.5813
            }
          },
          {
            "elSymbol": "C",
            "p3d": {
              "x": 6.1226,
              "y": 8.6531,
              "z": -4.7938
            }
          }
        ],
        "bonds": [
          {
            "atomIds": [
              1,
              0
            ],
            "bo": "SINGLE"
          },
          {
            "atomIds": [
              2,
              1
            ],
            "bo": "SINGLE"
          },
          {
            "atomIds": [
              3,
              2
            ],
            "bo": "SINGLE"
          },
          {
            "atomIds": [
              4,
              2
            ],
            "bo": "DOUBLE"
          },
          {
            "atomIds": [
              5,
              4
            ],
            "bo": "SINGLE"
          },
          {
            "atomIds": [
              6,
              4
            ],
            "bo": "SINGLE"
          },
          {
            "atomIds": [
              7,
              6
            ],
            "bo": "SINGLE"
          },
          {
            "atomIds": [
              8,
              6
            ],
            "bo": "DOUBLE"
          },
          {
            "atomIds": [
              9,
              8
            ],
            "bo": "SINGLE"
          },
          {
            "atomIds": [
              10,
              1
            ],
            "bo": "DOUBLE"
          },
          {
            "atomIds": [
              10,
              8
            ],
            "bo": "SINGLE"
          },
          {
            "atomIds": [
              11,
              10
            ],
            "bo": "SINGLE"
          },
          {
            "atomIds": [
              11,
              12
            ],
            "bo": "SINGLE"
          },
          {
            "atomIds": [
              11,
              20
            ],
            "bo": "DOUBLE"
          },
          {
            "atomIds": [
              13,
              12
            ],
            "bo": "SINGLE"
          },
          {
            "atomIds": [
              14,
              12
            ],
            "bo": "DOUBLE"
          },
          {
            "atomIds": [
              15,
              14
            ],
            "bo": "SINGLE"
          },
          {
            "atomIds": [
              16,
              14
            ],
            "bo": "SINGLE"
          },
          {
            "atomIds": [
              17,
              16
            ],
            "bo": "SINGLE"
          },
          {
            "atomIds": [
              18,
              16
            ],
            "bo": "DOUBLE"
          },
          {
            "atomIds": [
              18,
              20
            ],
            "bo": "SINGLE"
          },
          {
            "atomIds": [
              19,
              18
            ],
            "bo": "SINGLE"
          },
          {
            "atomIds": [
              20,
              0
            ],
            "bo": "SINGLE"
          }
        ]
      },
      "vertexId": 343147,
      "buildingBlockId": 10,
      "buildingBlockType": "FRAGMENT",
      "isRCV": false,
      "properties": {
        "ATTACHMENT_POINTS": "1#LAminoPhosphineCycloN:1:SINGLE:6.1199%9.1336%-2.0435 "
      },
      "uniquefyingPropertyKeys": [],
      "allowedMutationTypes": [
        "DELETE",
        "EXTEND",
        "CHANGEBRANCH",
        "CHANGELINK",
        "ADDLINK",
        "DELETELINK",
        "DELETECHAIN"
      ],
      "vertexType": "MolecularFragment"
    },
    {
      "lstAPs": [
        {
          "id": 446921,
          "atomPositionNumber": 0,
          "atomPositionNumberInMol": 28,
          "apClass": {
            "rule": "SubRS",
            "subClass": 1,
            "bndTyp": "SINGLE"
          },
          "dirVec": {
            "x": 0.2865,
            "y": 0.3959,
            "z": -0.6387
          }
        }
      ],
      "lstSymAPs": [],
      "mol": {
        "atoms": [
          {
            "elSymbol": "C",
            "p3d": {
              "x": 0.3969,
              "y": -0.0496,
              "z": 0.8235
            }
          },
          {
            "elSymbol": "H",
            "p3d": {
              "x": -0.6146,
              "y": -0.163,
              "z": 1.2402
            }
          },
          {
            "elSymbol": "H",
            "p3d": {
              "x": 0.9335,
              "y": -0.9979,
              "z": 0.8998
            }
          },
          {
            "elSymbol": "H",
            "p3d": {
              "x": 0.9252,
              "y": 0.7237,
              "z": 1.3995
            }
          }
        ],
        "bonds": [
          {
            "atomIds": [
              0,
              1
            ],
            "bo": "SINGLE"
          },
          {
            "atomIds": [
              0,
              2
            ],
            "bo": "SINGLE"
          },
          {
            "atomIds": [
              0,
              3
            ],
            "bo": "SINGLE"
          }
        ]
      },
      "vertexId": 342643,
      "buildingBlockId": 30,
      "buildingBlockType": "FRAGMENT",
      "isRCV": false,
      "properties": {
        "ATTACHMENT_POINTS": "1#SubRS:1:SINGLE:0.2865%0.3959%-0.6387 "
      },
      "uniquefyingPropertyKeys": [],
      "allowedMutationTypes": [
        "DELETE",
        "EXTEND",
        "CHANGEBRANCH",
        "CHANGELINK",
        "ADDLINK",
        "DELETELINK",
        "DELETECHAIN"
      ],
      "vertexType": "MolecularFragment"
    },
    {
      "lstAPs": [
        {
          "id": 446922,
          "atomPositionNumber": 0,
          "atomPositionNumberInMol": 32,
          "apClass": {
            "rule": "LAminoPhosphineCycloN",
            "subClass": 1,
            "bndTyp": "SINGLE"
          },
          "dirVec": {
            "x": 6.1199,
            "y": 9.1336,
            "z": -2.0435
          }
        }
      ],
      "lstSymAPs": [],
      "mol": {
        "atoms": [
          {
            "elSymbol": "N",
            "p3d": {
              "x": 5.8505,
              "y": 8.2355,
              "z": -3.4594
            }
          },
          {
            "elSymbol": "C",
            "p3d": {
              "x": 4.8225,
              "y": 7.2426,
              "z": -3.5412
            }
          },
          {
            "elSymbol": "C",
            "p3d": {
              "x": 4.1523,
              "y": 6.5371,
              "z": -2.5564
            }
          },
          {
            "elSymbol": "H",
            "p3d": {
              "x": 4.3784,
              "y": 6.7128,
              "z": -1.5122
            }
          },
          {
            "elSymbol": "C",
            "p3d": {
              "x": 3.2111,
              "y": 5.6125,
              "z": -2.9044
            }
          },
          {
            "elSymbol": "H",
            "p3d": {
              "x": 2.6898,
              "y": 5.0632,
              "z": -2.1205
            }
          },
          {
            "elSymbol": "C",
            "p3d": {
              "x": 2.8931,
              "y": 5.3499,
              "z": -4.2772
            }
          },
          {
            "elSymbol": "H",
            "p3d": {
              "x": 2.1461,
              "y": 4.6131,
              "z": -4.5621
            }
          },
          {
            "elSymbol": "C",
            "p3d": {
              "x": 3.5744,
              "y": 6.0736,
              "z": -5.2446
            }
          },
          {
            "elSymbol": "H",
            "p3d": {
              "x": 3.3488,
              "y": 5.9043,
              "z": -6.2871
            }
          },
          {
            "elSymbol": "C",
            "p3d": {
              "x": 4.5213,
              "y": 6.9735,
              "z": -4.8917
            }
          },
          {
            "elSymbol": "C",
            "p3d": {
              "x": 5.318,
              "y": 7.9347,
              "z": -5.6815
            }
          },
          {
            "elSymbol": "C",
            "p3d": {
              "x": 5.3868,
              "y": 8.1589,
              "z": -7.0529
            }
          },
          {
            "elSymbol": "H",
            "p3d": {
              "x": 4.7987,
              "y": 7.5735,
              "z": -7.7667
            }
          },
          {
            "elSymbol": "C",
            "p3d": {
              "x": 6.2214,
              "y": 9.1759,
              "z": -7.4935
            }
          },
          {
            "elSymbol": "H",
            "p3d": {
              "x": 6.2395,
              "y": 9.421,
              "z": -8.5556
            }
          },
          {
            "elSymbol": "C",
            "p3d": {
              "x": 7.018,
              "y": 9.8755,
              "z": -6.613
            }
          },
          {
            "elSymbol": "H",
            "p3d": {
              "x": 7.7039,
              "y": 10.6248,
              "z": -7.0211
            }
          },
          {
            "elSymbol": "C",
            "p3d": {
              "x": 6.9587,
              "y": 9.6342,
              "z": -5.2762
            }
          },
          {
            "elSymbol": "H",
            "p3d": {
              "x": 7.5802,
              "y": 10.2259,
              "z": -4.5813
            }
          },
          {
            "elSymbol": "C",
            "p3d": {
              "x": 6.1226,
              "y": 8.6531,
              "z": -4.7938
            }
          }
        ],
        "bonds": [
          {
            "atomIds": [
              1,
              0
            ],
            "bo": "SINGLE"
          },
          {
            "atomIds": [
              2,
              1
            ],
            "bo": "SINGLE"
          },
          {
            "atomIds": [
              3,
              2
            ],
            "bo": "SINGLE"
          },
          {
            "atomIds": [
              4,
              2
            ],
            "bo": "DOUBLE"
          },
          {
            "atomIds": [
              5,
              4
            ],
            "bo": "SINGLE"
          },
          {
            "atomIds": [
              6,
              4
            ],
            "bo": "SINGLE"
          },
          {
            "atomIds": [
              7,
              6
            ],
            "bo": "SINGLE"
          },
          {
            "atomIds": [
              8,
              6
            ],
            "bo": "DOUBLE"
          },
          {
            "atomIds": [
              9,
              8
            ],
            "bo": "SINGLE"
          },
          {
            "atomIds": [
              10,
              1
            ],
            "bo": "DOUBLE"
          },
          {
            "atomIds": [
              10,
              8
            ],
            "bo": "SINGLE"
          },
          {
            "atomIds": [
              11,
              10
            ],
            "bo": "SINGLE"
          },
          {
            "atomIds": [
              11,
              12
            ],
            "bo": "SINGLE"
          },
          {
            "atomIds": [
              11,
              20
            ],
            "bo": "DOUBLE"
          },
          {
            "atomIds": [
              13,
              12
            ],
            "bo": "SINGLE"
          },
          {
            "atomIds": [
              14,
              12
            ],
            "bo": "DOUBLE"
          },
          {
            "atomIds": [
              15,
              14
            ],
            "bo": "SINGLE"
          },
          {
            "atomIds": [
              16,
              14
            ],
            "bo": "SINGLE"
          },
          {
            "atomIds": [
              17,
              16
            ],
            "bo": "SINGLE"
          },
          {
            "atomIds": [
              18,
              16
            ],
            "bo": "DOUBLE"
          },
          {
            "atomIds": [
              18,
              20
            ],
            "bo": "SINGLE"
          },
          {
            "atomIds": [
              19,
              18
            ],
            "bo": "SINGLE"
          },
          {
            "atomIds": [
              20,
              0
            ],
            "bo": "SINGLE"
          }
        ]
      },
      "vertexId": 342638,
      "buildingBlockId": 10,
      "buildingBlockType": "FRAGMENT",
      "isRCV": false,
      "properties": {
        "ATTACHMENT_POINTS": "1#LAminoPhosphineCycloN:1:SINGLE:6.1199%9.1336%-2.0435 "
      },
      "uniquefyingPropertyKeys": [],
      "allowedMutationTypes": [
        "DELETE",
        "EXTEND",
        "CHANGEBRANCH",
        "CHANGELINK",
        "ADDLINK",
        "DELETELINK",
        "DELETECHAIN"
      ],
      "vertexType": "MolecularFragment"
    }
  ],
  "gEdges": [
    {
      "srcAPID": 446875,
      "trgAPID": 446878,
      "bondType": "SINGLE"
    },
    {
      "srcAPID": 446877,
      "trgAPID": 446882,
      "bondType": "SINGLE"
    },
    {
      "srcAPID": 446876,
      "trgAPID": 446883,
      "bondType": "SINGLE"
    },
    {
      "srcAPID": 446880,
      "trgAPID": 446920,
      "bondType": "SINGLE"
    },
    {
      "srcAPID": 446881,
      "trgAPID": 446921,
      "bondType": "SINGLE"
    },
    {
      "srcAPID": 446879,
      "trgAPID": 446922,
      "bondType": "SINGLE"
    }
  ],
  "gRings": [],
  "symVertices": [
    {
      "symIds": [
        343147,
        342638
      ]
    }
  ]
}

> <SMILES>
[Pt](C#O)(Cl)([P](N1C=2C([H])=C([H])C([H])=C([H])C2C=3C([H])=C([H])C([H])=C(C31)[H])(C([H])([H])[H])N4C=5C([H])=C([H])C([H])=C([H])C5C=6C([H])=C([H])C([H])=C(C64)[H])Cl

$$$$
