M00016082
  CDK     04222214233D

 27 27  0  0  0  0  0  0  0  0999 V2000
   -2.3148   -0.3870   -0.9750 Pt  0  0  0  0  0  0  0  0  0  0  0  0
   -4.1574   -0.7380   -1.5838 C   0  0  0  0  0  0  0  0  0  0  0  0
   -5.2174   -0.9358   -1.9482 O   0  0  0  0  0  0  0  0  0  0  0  0
   -2.0176    0.3054   -3.2034 Cl  0  0  0  0  0  0  0  0  0  0  0  0
   -0.1595    0.0486   -0.3548 P   0  0  0  0  0  0  0  0  0  0  0  0
    0.2760    1.6335   -0.7581 O   0  0  0  0  0  0  0  0  0  0  0  0
    0.9343   -0.7295   -1.3854 O   0  0  0  0  0  0  0  0  0  0  0  0
    0.8532    1.6165   -2.0958 C   0  0  0  0  0  0  0  0  0  0  0  0
    1.7146    2.3068   -2.0124 H   0  0  0  0  0  0  0  0  0  0  0  0
    0.0896    2.0530   -2.7760 H   0  0  0  0  0  0  0  0  0  0  0  0
    1.2488    0.1809   -2.4788 C   0  0  0  0  0  0  0  0  0  0  0  0
    0.7050   -0.1961   -3.3724 H   0  0  0  0  0  0  0  0  0  0  0  0
    2.3379    0.0438   -2.6217 H   0  0  0  0  0  0  0  0  0  0  0  0
    0.5001   -0.2350    1.4119 C   0  0  0  0  0  0  0  0  0  0  0  0
    1.9695    0.1822    1.4170 C   0  0  0  0  0  0  0  0  0  0  0  0
   -0.3342    0.6423    2.3376 C   0  0  0  0  0  0  0  0  0  0  0  0
    0.3393   -1.7215    1.7076 C   0  0  0  0  0  0  0  0  0  0  0  0
    2.1180    1.2440    1.1717 H   0  0  0  0  0  0  0  0  0  0  0  0
    0.8976   -2.3716    1.0194 H   0  0  0  0  0  0  0  0  0  0  0  0
   -0.2671    1.7153    2.1086 H   0  0  0  0  0  0  0  0  0  0  0  0
    0.0160    0.5360    3.3765 H   0  0  0  0  0  0  0  0  0  0  0  0
    0.7244   -1.9505    2.7139 H   0  0  0  0  0  0  0  0  0  0  0  0
   -0.7091   -2.0621    1.7203 H   0  0  0  0  0  0  0  0  0  0  0  0
    2.4004    0.0383    2.4193 H   0  0  0  0  0  0  0  0  0  0  0  0
    2.5900   -0.4126    0.7310 H   0  0  0  0  0  0  0  0  0  0  0  0
   -1.4016    0.3684    2.3684 H   0  0  0  0  0  0  0  0  0  0  0  0
   -3.1360   -1.1753    1.0625 Cl  0  0  0  0  0  0  0  0  0  0  0  0
  2  3  3  0  0  0  0
  1  2  1  0  0  0  0
  1  4  1  0  0  0  0
  6  5  1  0  0  0  0
  7  5  1  0  0  0  0
  8  6  1  0  0  0  0
  8 11  1  0  0  0  0
  9  8  1  0  0  0  0
 10  8  1  0  0  0  0
 11  7  1  0  0  0  0
 12 11  1  0  0  0  0
 13 11  1  0  0  0  0
  1  5  1  0  0  0  0
 14 15  1  0  0  0  0
 14 16  1  0  0  0  0
 14 17  1  0  0  0  0
 15 18  1  0  0  0  0
 17 19  1  0  0  0  0
 16 20  1  0  0  0  0
 16 21  1  0  0  0  0
 17 22  1  0  0  0  0
 17 23  1  0  0  0  0
 15 24  1  0  0  0  0
 15 25  1  0  0  0  0
 16 26  1  0  0  0  0
  5 14  1  0  0  0  0
  1 27  1  0  0  0  0
M  END
> <PM6_ENERGY>
-759.231

> <UID>
LPNPRAAYZIDUJW-USTOJWOMNA-L

> <FITNESS>
1.13821

> <GCODE>
17359

> <GraphENC>
17359 72_1_0,82_67_1,118_58_1,88_67_1,356825_34_1, 72_0_82_0_SINGLE_Xlig:0_Xlig:1,72_2_118_1_SINGLE_scaff:0_MPhosphonite:1,72_1_88_0_SINGLE_Xlig:0_Xlig:1,118_0_356825_0_SINGLE_LPhosphoniteSubR:0_SubRL:1, 

> <GraphJson>
{
  "graphId": 17359,
  "gVertices": [
    {
      "lstAPs": [
        {
          "id": 464769,
          "atomPositionNumber": 0,
          "atomPositionNumberInMol": 0,
          "apClass": {
            "rule": "Xlig",
            "subClass": 0,
            "bndTyp": "SINGLE"
          },
          "dirVec": {
            "x": -2.3339,
            "y": -0.0087,
            "z": 0.8172
          }
        },
        {
          "id": 464770,
          "atomPositionNumber": 0,
          "atomPositionNumberInMol": 0,
          "apClass": {
            "rule": "Xlig",
            "subClass": 0,
            "bndTyp": "SINGLE"
          },
          "dirVec": {
            "x": 2.336,
            "y": -5.0E-4,
            "z": 0.829
          }
        },
        {
          "id": 464771,
          "atomPositionNumber": 0,
          "atomPositionNumberInMol": 0,
          "apClass": {
            "rule": "scaff",
            "subClass": 0,
            "bndTyp": "SINGLE"
          },
          "dirVec": {
            "x": -0.0095,
            "y": 0.0046,
            "z": -1.7113
          }
        }
      ],
      "lstSymAPs": [
        {
          "symIds": [
            0,
            1
          ]
        }
      ],
      "mol": {
        "atoms": [
          {
            "elSymbol": "Pt",
            "p3d": {
              "x": -0.0098,
              "y": 0.0049,
              "z": 0.6289
            }
          },
          {
            "elSymbol": "C",
            "p3d": {
              "x": -6.0E-4,
              "y": 0.0016,
              "z": 2.5609
            }
          },
          {
            "elSymbol": "O",
            "p3d": {
              "x": 0.0025,
              "y": -0.0041,
              "z": 3.6974
            }
          },
          {
            "elSymbol": "Du",
            "p3d": {
              "x": -0.007,
              "y": 1.0013,
              "z": 0.6372
            }
          },
          {
            "elSymbol": "Du",
            "p3d": {
              "x": -0.0014,
              "y": 0.9902,
              "z": 2.5698
            }
          }
        ],
        "bonds": [
          {
            "atomIds": [
              1,
              2
            ],
            "bo": "TRIPLE"
          },
          {
            "atomIds": [
              0,
              1
            ],
            "bo": "SINGLE"
          },
          {
            "atomIds": [
              3,
              0
            ],
            "bo": "SINGLE"
          },
          {
            "atomIds": [
              4,
              1
            ],
            "bo": "SINGLE"
          }
        ]
      },
      "vertexId": 72,
      "buildingBlockId": 0,
      "buildingBlockType": "SCAFFOLD",
      "isRCV": false,
      "properties": {
        "ATTACHMENT_POINTS": "1#Xlig:0:SINGLE:-2.3339%-0.0087%0.8172,Xlig:0:SINGLE:2.3360%-0.0005%0.8290,scaff:0:SINGLE:-0.0095%0.0046%-1.7113 "
      },
      "uniquefyingPropertyKeys": [],
      "allowedMutationTypes": [
        "DELETE",
        "EXTEND",
        "CHANGEBRANCH",
        "CHANGELINK",
        "ADDLINK",
        "DELETELINK",
        "DELETECHAIN"
      ],
      "vertexType": "MolecularFragment"
    },
    {
      "lstAPs": [
        {
          "id": 464772,
          "atomPositionNumber": 0,
          "atomPositionNumberInMol": 5,
          "apClass": {
            "rule": "Xlig",
            "subClass": 1,
            "bndTyp": "SINGLE"
          },
          "dirVec": {
            "x": -0.0053,
            "y": -0.0027,
            "z": 0.63
          }
        }
      ],
      "lstSymAPs": [],
      "mol": {
        "atoms": [
          {
            "elSymbol": "Cl",
            "p3d": {
              "x": 2.3243,
              "y": -0.0063,
              "z": 0.8189
            }
          }
        ],
        "bonds": []
      },
      "vertexId": 82,
      "buildingBlockId": 66,
      "buildingBlockType": "FRAGMENT",
      "isRCV": false,
      "properties": {
        "ATTACHMENT_POINTS": "1#Xlig:1:SINGLE:-0.0053%-0.0027%0.6300 "
      },
      "uniquefyingPropertyKeys": [],
      "allowedMutationTypes": [
        "DELETE",
        "EXTEND",
        "CHANGEBRANCH",
        "CHANGELINK",
        "ADDLINK",
        "DELETELINK",
        "DELETECHAIN"
      ],
      "vertexType": "MolecularFragment"
    },
    {
      "lstAPs": [
        {
          "id": 464773,
          "atomPositionNumber": 0,
          "atomPositionNumberInMol": 6,
          "apClass": {
            "rule": "LPhosphoniteSubR",
            "subClass": 0,
            "bndTyp": "SINGLE"
          },
          "dirVec": {
            "x": 4.6565,
            "y": 2.2234,
            "z": 1.9268
          }
        },
        {
          "id": 464774,
          "atomPositionNumber": 0,
          "atomPositionNumberInMol": 6,
          "apClass": {
            "rule": "MPhosphonite",
            "subClass": 1,
            "bndTyp": "SINGLE"
          },
          "dirVec": {
            "x": 2.1365,
            "y": 0.094,
            "z": 0.9533
          }
        }
      ],
      "lstSymAPs": [],
      "mol": {
        "atoms": [
          {
            "elSymbol": "P",
            "p3d": {
              "x": 3.5562,
              "y": 0.863,
              "z": 2.4507
            }
          },
          {
            "elSymbol": "O",
            "p3d": {
              "x": 4.552,
              "y": -0.2283,
              "z": 3.0401
            }
          },
          {
            "elSymbol": "O",
            "p3d": {
              "x": 2.9564,
              "y": 1.3839,
              "z": 3.8353
            }
          },
          {
            "elSymbol": "C",
            "p3d": {
              "x": 4.8994,
              "y": 0.107,
              "z": 4.4321
            }
          },
          {
            "elSymbol": "H",
            "p3d": {
              "x": 5.9328,
              "y": 0.4241,
              "z": 4.4931
            }
          },
          {
            "elSymbol": "H",
            "p3d": {
              "x": 4.7479,
              "y": -0.7734,
              "z": 5.0714
            }
          },
          {
            "elSymbol": "C",
            "p3d": {
              "x": 3.9773,
              "y": 1.2052,
              "z": 4.8652
            }
          },
          {
            "elSymbol": "H",
            "p3d": {
              "x": 3.5192,
              "y": 0.9618,
              "z": 5.809
            }
          },
          {
            "elSymbol": "H",
            "p3d": {
              "x": 4.5435,
              "y": 2.1295,
              "z": 4.9863
            }
          }
        ],
        "bonds": [
          {
            "atomIds": [
              1,
              0
            ],
            "bo": "SINGLE"
          },
          {
            "atomIds": [
              2,
              0
            ],
            "bo": "SINGLE"
          },
          {
            "atomIds": [
              3,
              1
            ],
            "bo": "SINGLE"
          },
          {
            "atomIds": [
              3,
              6
            ],
            "bo": "SINGLE"
          },
          {
            "atomIds": [
              4,
              3
            ],
            "bo": "SINGLE"
          },
          {
            "atomIds": [
              5,
              3
            ],
            "bo": "SINGLE"
          },
          {
            "atomIds": [
              6,
              2
            ],
            "bo": "SINGLE"
          },
          {
            "atomIds": [
              7,
              6
            ],
            "bo": "SINGLE"
          },
          {
            "atomIds": [
              8,
              6
            ],
            "bo": "SINGLE"
          }
        ]
      },
      "vertexId": 118,
      "buildingBlockId": 57,
      "buildingBlockType": "FRAGMENT",
      "isRCV": false,
      "properties": {
        "ATTACHMENT_POINTS": "1#LPhosphoniteSubR:0:SINGLE:4.6565%2.2234%1.9268,MPhosphonite:1:SINGLE:2.1365%0.0940%0.9533 "
      },
      "uniquefyingPropertyKeys": [],
      "allowedMutationTypes": [
        "DELETE",
        "EXTEND",
        "CHANGEBRANCH",
        "CHANGELINK",
        "ADDLINK",
        "DELETELINK",
        "DELETECHAIN"
      ],
      "vertexType": "MolecularFragment"
    },
    {
      "lstAPs": [
        {
          "id": 464775,
          "atomPositionNumber": 0,
          "atomPositionNumberInMol": 28,
          "apClass": {
            "rule": "Xlig",
            "subClass": 1,
            "bndTyp": "SINGLE"
          },
          "dirVec": {
            "x": -0.0053,
            "y": -0.0027,
            "z": 0.63
          }
        }
      ],
      "lstSymAPs": [],
      "mol": {
        "atoms": [
          {
            "elSymbol": "Cl",
            "p3d": {
              "x": 2.3243,
              "y": -0.0063,
              "z": 0.8189
            }
          }
        ],
        "bonds": []
      },
      "vertexId": 88,
      "buildingBlockId": 66,
      "buildingBlockType": "FRAGMENT",
      "isRCV": false,
      "properties": {
        "ATTACHMENT_POINTS": "1#Xlig:1:SINGLE:-0.0053%-0.0027%0.6300 "
      },
      "uniquefyingPropertyKeys": [],
      "allowedMutationTypes": [
        "DELETE",
        "EXTEND",
        "CHANGEBRANCH",
        "CHANGELINK",
        "ADDLINK",
        "DELETELINK",
        "DELETECHAIN"
      ],
      "vertexType": "MolecularFragment"
    },
    {
      "lstAPs": [
        {
          "id": 464800,
          "atomPositionNumber": 0,
          "atomPositionNumberInMol": 15,
          "apClass": {
            "rule": "SubRL",
            "subClass": 1,
            "bndTyp": "SINGLE"
          },
          "dirVec": {
            "x": 0.2857,
            "y": 0.39,
            "z": -0.6426
          }
        }
      ],
      "lstSymAPs": [],
      "mol": {
        "atoms": [
          {
            "elSymbol": "C",
            "p3d": {
              "x": 0.3842,
              "y": -0.0523,
              "z": 0.8329
            }
          },
          {
            "elSymbol": "C",
            "p3d": {
              "x": -0.6709,
              "y": 0.6882,
              "z": 1.6615
            }
          },
          {
            "elSymbol": "C",
            "p3d": {
              "x": 0.1554,
              "y": -1.558,
              "z": 0.9277
            }
          },
          {
            "elSymbol": "C",
            "p3d": {
              "x": 1.7886,
              "y": 0.2826,
              "z": 1.3761
            }
          },
          {
            "elSymbol": "H",
            "p3d": {
              "x": -0.5899,
              "y": 0.3841,
              "z": 2.6969
            }
          },
          {
            "elSymbol": "H",
            "p3d": {
              "x": 1.8617,
              "y": -0.0274,
              "z": 2.4067
            }
          },
          {
            "elSymbol": "H",
            "p3d": {
              "x": 0.2289,
              "y": -1.8635,
              "z": 1.9737
            }
          },
          {
            "elSymbol": "H",
            "p3d": {
              "x": 0.8983,
              "y": -2.0943,
              "z": 0.3332
            }
          },
          {
            "elSymbol": "H",
            "p3d": {
              "x": 2.5395,
              "y": -0.2409,
              "z": 0.7751
            }
          },
          {
            "elSymbol": "H",
            "p3d": {
              "x": 1.9553,
              "y": 1.3543,
              "z": 1.294
            }
          },
          {
            "elSymbol": "H",
            "p3d": {
              "x": -0.4937,
              "y": 1.7723,
              "z": 1.5856
            }
          },
          {
            "elSymbol": "H",
            "p3d": {
              "x": -1.6541,
              "y": 0.4601,
              "z": 1.2602
            }
          },
          {
            "elSymbol": "H",
            "p3d": {
              "x": -0.8514,
              "y": -1.792,
              "z": 0.5518
            }
          }
        ],
        "bonds": [
          {
            "atomIds": [
              0,
              1
            ],
            "bo": "SINGLE"
          },
          {
            "atomIds": [
              0,
              2
            ],
            "bo": "SINGLE"
          },
          {
            "atomIds": [
              0,
              3
            ],
            "bo": "SINGLE"
          },
          {
            "atomIds": [
              1,
              4
            ],
            "bo": "SINGLE"
          },
          {
            "atomIds": [
              3,
              5
            ],
            "bo": "SINGLE"
          },
          {
            "atomIds": [
              2,
              6
            ],
            "bo": "SINGLE"
          },
          {
            "atomIds": [
              2,
              7
            ],
            "bo": "SINGLE"
          },
          {
            "atomIds": [
              3,
              8
            ],
            "bo": "SINGLE"
          },
          {
            "atomIds": [
              3,
              9
            ],
            "bo": "SINGLE"
          },
          {
            "atomIds": [
              1,
              10
            ],
            "bo": "SINGLE"
          },
          {
            "atomIds": [
              1,
              11
            ],
            "bo": "SINGLE"
          },
          {
            "atomIds": [
              2,
              12
            ],
            "bo": "SINGLE"
          }
        ]
      },
      "vertexId": 356825,
      "buildingBlockId": 33,
      "buildingBlockType": "FRAGMENT",
      "isRCV": false,
      "properties": {
        "ATTACHMENT_POINTS": "1#SubRL:1:SINGLE:0.2857%0.3900%-0.6426 "
      },
      "uniquefyingPropertyKeys": [],
      "allowedMutationTypes": [
        "DELETE",
        "EXTEND",
        "CHANGEBRANCH",
        "CHANGELINK",
        "ADDLINK",
        "DELETELINK",
        "DELETECHAIN"
      ],
      "vertexType": "MolecularFragment"
    }
  ],
  "gEdges": [
    {
      "srcAPID": 464769,
      "trgAPID": 464772,
      "bondType": "SINGLE"
    },
    {
      "srcAPID": 464771,
      "trgAPID": 464774,
      "bondType": "SINGLE"
    },
    {
      "srcAPID": 464770,
      "trgAPID": 464775,
      "bondType": "SINGLE"
    },
    {
      "srcAPID": 464773,
      "trgAPID": 464800,
      "bondType": "SINGLE"
    }
  ],
  "gRings": [],
  "symVertices": []
}

> <SMILES>
[Pt](C#O)(Cl)([P]1(OC(C(O1)([H])[H])([H])[H])C(C([H])([H])[H])(C([H])([H])[H])C([H])([H])[H])Cl

$$$$
