M00004279
  CDK     04222210143D

 42 42  0  0  0  0  0  0  0  0999 V2000
   -1.9339   -0.2578   -0.7174 Pt  0  0  0  0  0  0  0  0  0  0  0  0
   -3.8477   -0.2375   -0.4405 C   0  0  0  0  0  0  0  0  0  0  0  0
   -4.9805   -0.2140   -0.2761 O   0  0  0  0  0  0  0  0  0  0  0  0
   -1.2855    1.5977   -0.1018 O   0  0  0  0  0  0  0  0  0  0  0  0
   -2.2510    2.3782    0.5579 C   0  0  0  0  0  0  0  0  0  0  0  0
   -1.7471    3.3138    0.8389 H   0  0  0  0  0  0  0  0  0  0  0  0
   -2.6011    1.8547    1.4558 H   0  0  0  0  0  0  0  0  0  0  0  0
   -3.0816    2.5936   -0.1254 H   0  0  0  0  0  0  0  0  0  0  0  0
    0.3285   -0.1915   -0.9626 P   0  0  0  0  0  0  0  0  0  0  0  0
    1.0516   -0.4296    0.7819 C   0  0  0  0  0  0  0  0  0  0  0  0
    1.7646    0.6854    2.9249 C   0  0  0  0  0  0  0  0  0  0  0  0
    0.5346   -1.5281    2.9899 C   0  0  0  0  0  0  0  0  0  0  0  0
    0.7889   -0.1988    3.7131 C   0  0  0  0  0  0  0  0  0  0  0  0
    0.0379   -1.2927    1.5531 C   0  0  0  0  0  0  0  0  0  0  0  0
    1.2786    0.9143    1.4838 C   0  0  0  0  0  0  0  0  0  0  0  0
    2.7681    0.2191    2.9153 H   0  0  0  0  0  0  0  0  0  0  0  0
    1.4614   -2.1325    2.9751 H   0  0  0  0  0  0  0  0  0  0  0  0
   -0.1693    0.3381    3.8554 H   0  0  0  0  0  0  0  0  0  0  0  0
   -0.9618   -0.7939    1.5977 H   0  0  0  0  0  0  0  0  0  0  0  0
    0.3336    1.5089    1.5040 H   0  0  0  0  0  0  0  0  0  0  0  0
    2.0251   -0.9722    0.7094 H   0  0  0  0  0  0  0  0  0  0  0  0
    1.8846    1.6599    3.4348 H   0  0  0  0  0  0  0  0  0  0  0  0
   -0.2103   -2.1261    3.5484 H   0  0  0  0  0  0  0  0  0  0  0  0
    1.1866   -0.3901    4.7271 H   0  0  0  0  0  0  0  0  0  0  0  0
   -0.1257   -2.2756    1.0633 H   0  0  0  0  0  0  0  0  0  0  0  0
    2.0236    1.5330    0.9484 H   0  0  0  0  0  0  0  0  0  0  0  0
    0.5511   -1.6436   -3.3856 C   0  0  0  0  0  0  0  0  0  0  0  0
    1.0933   -1.5995   -1.9686 C   0  0  0  0  0  0  0  0  0  0  0  0
   -0.5352   -1.8302   -3.4239 H   0  0  0  0  0  0  0  0  0  0  0  0
    0.7542   -0.7240   -3.9598 H   0  0  0  0  0  0  0  0  0  0  0  0
    1.0118   -2.4724   -3.9444 H   0  0  0  0  0  0  0  0  0  0  0  0
    0.8735   -2.5647   -1.4573 H   0  0  0  0  0  0  0  0  0  0  0  0
    2.1967   -1.4995   -1.9782 H   0  0  0  0  0  0  0  0  0  0  0  0
    0.3016    1.6699   -3.0574 C   0  0  0  0  0  0  0  0  0  0  0  0
    0.9273    1.4379   -1.6938 C   0  0  0  0  0  0  0  0  0  0  0  0
   -0.7998    1.7091   -3.0118 H   0  0  0  0  0  0  0  0  0  0  0  0
    0.6222    2.6412   -3.4625 H   0  0  0  0  0  0  0  0  0  0  0  0
    0.5843    0.9091   -3.8050 H   0  0  0  0  0  0  0  0  0  0  0  0
    2.0309    1.4637   -1.7414 H   0  0  0  0  0  0  0  0  0  0  0  0
    0.6042    2.2582   -0.9985 H   0  0  0  0  0  0  0  0  0  0  0  0
   -2.1917   -2.1097   -1.3513 C   0  0  0  0  0  0  0  0  0  0  0  0
   -2.2967   -3.2021   -1.7152 N   0  0  0  0  0  0  0  0  0  0  0  0
  2  3  3  0  0  0  0
  1  2  1  0  0  0  0
  5  6  1  0  0  0  0
  5  7  1  0  0  0  0
  5  8  1  0  0  0  0
  4  5  1  0  0  0  0
  1  4  1  0  0  0  0
  1  9  1  0  0  0  0
 10 21  1  0  0  0  0
 10 14  1  0  0  0  0
 10 15  1  0  0  0  0
 11 16  1  0  0  0  0
 11 22  1  0  0  0  0
 11 13  1  0  0  0  0
 11 15  1  0  0  0  0
 12 17  1  0  0  0  0
 12 23  1  0  0  0  0
 12 14  1  0  0  0  0
 12 13  1  0  0  0  0
 13 18  1  0  0  0  0
 13 24  1  0  0  0  0
 14 19  1  0  0  0  0
 14 25  1  0  0  0  0
 15 20  1  0  0  0  0
 15 26  1  0  0  0  0
  9 10  1  0  0  0  0
 27 28  1  0  0  0  0
 27 29  1  0  0  0  0
 27 30  1  0  0  0  0
 27 31  1  0  0  0  0
 28 32  1  0  0  0  0
 28 33  1  0  0  0  0
  9 28  1  0  0  0  0
 34 35  1  0  0  0  0
 34 36  1  0  0  0  0
 34 37  1  0  0  0  0
 34 38  1  0  0  0  0
 35 39  1  0  0  0  0
 35 40  1  0  0  0  0
  9 35  1  0  0  0  0
 41 42  3  0  0  0  0
  1 41  1  0  0  0  0
M  END
> <PM6_ENERGY>
-338.507

> <UID>
HQBQCTREUBGOOG-JOJYEBNLNA-N

> <FITNESS>
1.14491

> <GCODE>
5034

> <GraphENC>
5034 72_1_0,80_65_1,108_46_1,87_66_1,98410_35_1,98396_32_1,98658_32_1, 72_0_80_0_SINGLE_Xlig:0_Xlig:1,72_2_108_3_SINGLE_scaff:0_MPhosphine:1,72_1_87_0_SINGLE_Xlig:0_Xlig:1,108_2_98410_0_SINGLE_LPhosphineSubM:0_SubRM:1,108_0_98396_0_SINGLE_LPhosphineSubMSym:0_SubRS:1,108_1_98658_0_SINGLE_LPhosphineSubMSym:0_SubRS:1, SymmetricSet [symIds=[98396, 98658]] 

> <GraphJson>
{
  "graphId": 5034,
  "gVertices": [
    {
      "lstAPs": [
        {
          "id": 129787,
          "atomPositionNumber": 0,
          "atomPositionNumberInMol": 0,
          "apClass": {
            "rule": "Xlig",
            "subClass": 0,
            "bndTyp": "SINGLE"
          },
          "dirVec": {
            "x": -2.3339,
            "y": -0.0087,
            "z": 0.8172
          }
        },
        {
          "id": 129788,
          "atomPositionNumber": 0,
          "atomPositionNumberInMol": 0,
          "apClass": {
            "rule": "Xlig",
            "subClass": 0,
            "bndTyp": "SINGLE"
          },
          "dirVec": {
            "x": 2.336,
            "y": -5.0E-4,
            "z": 0.829
          }
        },
        {
          "id": 129789,
          "atomPositionNumber": 0,
          "atomPositionNumberInMol": 0,
          "apClass": {
            "rule": "scaff",
            "subClass": 0,
            "bndTyp": "SINGLE"
          },
          "dirVec": {
            "x": -0.0095,
            "y": 0.0046,
            "z": -1.7113
          }
        }
      ],
      "lstSymAPs": [
        {
          "symIds": [
            0,
            1
          ]
        }
      ],
      "mol": {
        "atoms": [
          {
            "elSymbol": "Pt",
            "p3d": {
              "x": -0.0098,
              "y": 0.0049,
              "z": 0.6289
            }
          },
          {
            "elSymbol": "C",
            "p3d": {
              "x": -6.0E-4,
              "y": 0.0016,
              "z": 2.5609
            }
          },
          {
            "elSymbol": "O",
            "p3d": {
              "x": 0.0025,
              "y": -0.0041,
              "z": 3.6974
            }
          },
          {
            "elSymbol": "Du",
            "p3d": {
              "x": -0.007,
              "y": 1.0013,
              "z": 0.6372
            }
          },
          {
            "elSymbol": "Du",
            "p3d": {
              "x": -0.0014,
              "y": 0.9902,
              "z": 2.5698
            }
          }
        ],
        "bonds": [
          {
            "atomIds": [
              1,
              2
            ],
            "bo": "TRIPLE"
          },
          {
            "atomIds": [
              0,
              1
            ],
            "bo": "SINGLE"
          },
          {
            "atomIds": [
              3,
              0
            ],
            "bo": "SINGLE"
          },
          {
            "atomIds": [
              4,
              1
            ],
            "bo": "SINGLE"
          }
        ]
      },
      "vertexId": 72,
      "buildingBlockId": 0,
      "buildingBlockType": "SCAFFOLD",
      "isRCV": false,
      "properties": {
        "ATTACHMENT_POINTS": "1#Xlig:0:SINGLE:-2.3339%-0.0087%0.8172,Xlig:0:SINGLE:2.3360%-0.0005%0.8290,scaff:0:SINGLE:-0.0095%0.0046%-1.7113 "
      },
      "uniquefyingPropertyKeys": [],
      "allowedMutationTypes": [
        "DELETE",
        "EXTEND",
        "CHANGEBRANCH",
        "CHANGELINK",
        "ADDLINK",
        "DELETELINK",
        "DELETECHAIN"
      ],
      "vertexType": "MolecularFragment"
    },
    {
      "lstAPs": [
        {
          "id": 129790,
          "atomPositionNumber": 0,
          "atomPositionNumberInMol": 5,
          "apClass": {
            "rule": "Xlig",
            "subClass": 1,
            "bndTyp": "SINGLE"
          },
          "dirVec": {
            "x": -0.1753,
            "y": 0.0948,
            "z": -0.4464
          }
        }
      ],
      "lstSymAPs": [],
      "mol": {
        "atoms": [
          {
            "elSymbol": "O",
            "p3d": {
              "x": -0.3534,
              "y": 2.1044,
              "z": -0.7339
            }
          },
          {
            "elSymbol": "C",
            "p3d": {
              "x": -0.5345,
              "y": 2.7646,
              "z": 0.4801
            }
          },
          {
            "elSymbol": "H",
            "p3d": {
              "x": -0.3728,
              "y": 3.8337,
              "z": 0.2724
            }
          },
          {
            "elSymbol": "H",
            "p3d": {
              "x": 0.1816,
              "y": 2.4161,
              "z": 1.2384
            }
          },
          {
            "elSymbol": "H",
            "p3d": {
              "x": -1.553,
              "y": 2.6149,
              "z": 0.8489
            }
          }
        ],
        "bonds": [
          {
            "atomIds": [
              1,
              2
            ],
            "bo": "SINGLE"
          },
          {
            "atomIds": [
              1,
              3
            ],
            "bo": "SINGLE"
          },
          {
            "atomIds": [
              1,
              4
            ],
            "bo": "SINGLE"
          },
          {
            "atomIds": [
              0,
              1
            ],
            "bo": "SINGLE"
          }
        ]
      },
      "vertexId": 80,
      "buildingBlockId": 64,
      "buildingBlockType": "FRAGMENT",
      "isRCV": false,
      "properties": {
        "ATTACHMENT_POINTS": "1#Xlig:1:SINGLE:-0.1753%0.0948%-0.4464 "
      },
      "uniquefyingPropertyKeys": [],
      "allowedMutationTypes": [
        "DELETE",
        "EXTEND",
        "CHANGEBRANCH",
        "CHANGELINK",
        "ADDLINK",
        "DELETELINK",
        "DELETECHAIN"
      ],
      "vertexType": "MolecularFragment"
    },
    {
      "lstAPs": [
        {
          "id": 129791,
          "atomPositionNumber": 0,
          "atomPositionNumberInMol": 10,
          "apClass": {
            "rule": "LPhosphineSubMSym",
            "subClass": 0,
            "bndTyp": "SINGLE"
          },
          "dirVec": {
            "x": 6.6301,
            "y": -0.008,
            "z": 3.7073
          }
        },
        {
          "id": 129792,
          "atomPositionNumber": 0,
          "atomPositionNumberInMol": 10,
          "apClass": {
            "rule": "LPhosphineSubMSym",
            "subClass": 0,
            "bndTyp": "SINGLE"
          },
          "dirVec": {
            "x": 9.0941,
            "y": -1.5268,
            "z": 3.4114
          }
        },
        {
          "id": 129793,
          "atomPositionNumber": 0,
          "atomPositionNumberInMol": 10,
          "apClass": {
            "rule": "LPhosphineSubM",
            "subClass": 0,
            "bndTyp": "SINGLE"
          },
          "dirVec": {
            "x": 9.1017,
            "y": 1.5197,
            "z": 3.4174
          }
        },
        {
          "id": 129794,
          "atomPositionNumber": 0,
          "atomPositionNumberInMol": 10,
          "apClass": {
            "rule": "MPhosphine",
            "subClass": 1,
            "bndTyp": "SINGLE"
          },
          "dirVec": {
            "x": 7.9584,
            "y": 0.0035,
            "z": 0.5116
          }
        }
      ],
      "lstSymAPs": [
        {
          "symIds": [
            0,
            1
          ]
        }
      ],
      "mol": {
        "atoms": [
          {
            "elSymbol": "P",
            "p3d": {
              "x": 8.2404,
              "y": 0.0024,
              "z": 2.8031
            }
          }
        ],
        "bonds": []
      },
      "vertexId": 108,
      "buildingBlockId": 45,
      "buildingBlockType": "FRAGMENT",
      "isRCV": false,
      "properties": {
        "ATTACHMENT_POINTS": "1#LPhosphineSubMSym:0:SINGLE:6.6301%-0.0080%3.7073,LPhosphineSubMSym:0:SINGLE:9.0941%-1.5268%3.4114,LPhosphineSubM:0:SINGLE:9.1017%1.5197%3.4174,MPhosphine:1:SINGLE:7.9584%0.0035%0.5116 "
      },
      "uniquefyingPropertyKeys": [],
      "allowedMutationTypes": [
        "DELETE",
        "EXTEND",
        "CHANGEBRANCH",
        "CHANGELINK",
        "ADDLINK",
        "DELETELINK",
        "DELETECHAIN"
      ],
      "vertexType": "MolecularFragment"
    },
    {
      "lstAPs": [
        {
          "id": 129795,
          "atomPositionNumber": 0,
          "atomPositionNumberInMol": 42,
          "apClass": {
            "rule": "Xlig",
            "subClass": 1,
            "bndTyp": "SINGLE"
          },
          "dirVec": {
            "x": 0.0192,
            "y": -0.0048,
            "z": -0.5645
          }
        }
      ],
      "lstSymAPs": [],
      "mol": {
        "atoms": [
          {
            "elSymbol": "C",
            "p3d": {
              "x": -1.967,
              "y": -0.0075,
              "z": -0.4937
            }
          },
          {
            "elSymbol": "N",
            "p3d": {
              "x": -3.1263,
              "y": -0.0054,
              "z": -0.4354
            }
          },
          {
            "elSymbol": "Du",
            "p3d": {
              "x": -1.9744,
              "y": 0.9926,
              "z": -0.5036
            }
          }
        ],
        "bonds": [
          {
            "atomIds": [
              0,
              1
            ],
            "bo": "TRIPLE"
          },
          {
            "atomIds": [
              2,
              0
            ],
            "bo": "SINGLE"
          }
        ]
      },
      "vertexId": 87,
      "buildingBlockId": 65,
      "buildingBlockType": "FRAGMENT",
      "isRCV": false,
      "properties": {
        "ATTACHMENT_POINTS": "1#Xlig:1:SINGLE:0.0192%-0.0048%-0.5645 "
      },
      "uniquefyingPropertyKeys": [],
      "allowedMutationTypes": [
        "DELETE",
        "EXTEND",
        "CHANGEBRANCH",
        "CHANGELINK",
        "ADDLINK",
        "DELETELINK",
        "DELETECHAIN"
      ],
      "vertexType": "MolecularFragment"
    },
    {
      "lstAPs": [
        {
          "id": 129820,
          "atomPositionNumber": 0,
          "atomPositionNumberInMol": 11,
          "apClass": {
            "rule": "SubRM",
            "subClass": 1,
            "bndTyp": "SINGLE"
          },
          "dirVec": {
            "x": 0.2917,
            "y": 0.3929,
            "z": -0.6365
          }
        }
      ],
      "lstSymAPs": [],
      "mol": {
        "atoms": [
          {
            "elSymbol": "C",
            "p3d": {
              "x": 1.7002,
              "y": 0.56,
              "z": -1.2045
            }
          },
          {
            "elSymbol": "C",
            "p3d": {
              "x": 3.564,
              "y": -0.7339,
              "z": -2.2652
            }
          },
          {
            "elSymbol": "C",
            "p3d": {
              "x": 2.9237,
              "y": 1.5034,
              "z": -3.1926
            }
          },
          {
            "elSymbol": "C",
            "p3d": {
              "x": 3.4145,
              "y": 0.0994,
              "z": -3.5498
            }
          },
          {
            "elSymbol": "C",
            "p3d": {
              "x": 1.5576,
              "y": 1.3879,
              "z": -2.5024
            }
          },
          {
            "elSymbol": "C",
            "p3d": {
              "x": 2.203,
              "y": -0.843,
              "z": -1.5702
            }
          },
          {
            "elSymbol": "H",
            "p3d": {
              "x": 4.3384,
              "y": -0.3241,
              "z": -1.6106
            }
          },
          {
            "elSymbol": "H",
            "p3d": {
              "x": 3.6361,
              "y": 2.0524,
              "z": -2.5991
            }
          },
          {
            "elSymbol": "H",
            "p3d": {
              "x": 2.7828,
              "y": -0.3911,
              "z": -4.2916
            }
          },
          {
            "elSymbol": "H",
            "p3d": {
              "x": 0.7737,
              "y": 0.9833,
              "z": -3.15
            }
          },
          {
            "elSymbol": "H",
            "p3d": {
              "x": 1.4815,
              "y": -1.3988,
              "z": -2.1783
            }
          },
          {
            "elSymbol": "H",
            "p3d": {
              "x": 2.3445,
              "y": 1.0609,
              "z": -0.4835
            }
          },
          {
            "elSymbol": "H",
            "p3d": {
              "x": 3.8429,
              "y": -1.7623,
              "z": -2.577
            }
          },
          {
            "elSymbol": "H",
            "p3d": {
              "x": 2.7428,
              "y": 2.0124,
              "z": -4.146
            }
          },
          {
            "elSymbol": "H",
            "p3d": {
              "x": 4.4291,
              "y": 0.2183,
              "z": -3.9628
            }
          },
          {
            "elSymbol": "H",
            "p3d": {
              "x": 1.2819,
              "y": 2.4034,
              "z": -2.1821
            }
          },
          {
            "elSymbol": "H",
            "p3d": {
              "x": 2.3734,
              "y": -1.3662,
              "z": -0.6149
            }
          }
        ],
        "bonds": [
          {
            "atomIds": [
              0,
              11
            ],
            "bo": "SINGLE"
          },
          {
            "atomIds": [
              0,
              4
            ],
            "bo": "SINGLE"
          },
          {
            "atomIds": [
              0,
              5
            ],
            "bo": "SINGLE"
          },
          {
            "atomIds": [
              1,
              6
            ],
            "bo": "SINGLE"
          },
          {
            "atomIds": [
              1,
              12
            ],
            "bo": "SINGLE"
          },
          {
            "atomIds": [
              1,
              3
            ],
            "bo": "SINGLE"
          },
          {
            "atomIds": [
              1,
              5
            ],
            "bo": "SINGLE"
          },
          {
            "atomIds": [
              2,
              7
            ],
            "bo": "SINGLE"
          },
          {
            "atomIds": [
              2,
              13
            ],
            "bo": "SINGLE"
          },
          {
            "atomIds": [
              2,
              4
            ],
            "bo": "SINGLE"
          },
          {
            "atomIds": [
              2,
              3
            ],
            "bo": "SINGLE"
          },
          {
            "atomIds": [
              3,
              8
            ],
            "bo": "SINGLE"
          },
          {
            "atomIds": [
              3,
              14
            ],
            "bo": "SINGLE"
          },
          {
            "atomIds": [
              4,
              9
            ],
            "bo": "SINGLE"
          },
          {
            "atomIds": [
              4,
              15
            ],
            "bo": "SINGLE"
          },
          {
            "atomIds": [
              5,
              10
            ],
            "bo": "SINGLE"
          },
          {
            "atomIds": [
              5,
              16
            ],
            "bo": "SINGLE"
          }
        ]
      },
      "vertexId": 98410,
      "buildingBlockId": 34,
      "buildingBlockType": "FRAGMENT",
      "isRCV": false,
      "properties": {
        "ATTACHMENT_POINTS": "1#SubRM:1:SINGLE:0.2917%0.3929%-0.6365 "
      },
      "uniquefyingPropertyKeys": [],
      "allowedMutationTypes": [
        "DELETE",
        "EXTEND",
        "CHANGEBRANCH",
        "CHANGELINK",
        "ADDLINK",
        "DELETELINK",
        "DELETECHAIN"
      ],
      "vertexType": "MolecularFragment"
    },
    {
      "lstAPs": [
        {
          "id": 129821,
          "atomPositionNumber": 1,
          "atomPositionNumberInMol": 29,
          "apClass": {
            "rule": "SubRS",
            "subClass": 1,
            "bndTyp": "SINGLE"
          },
          "dirVec": {
            "x": 0.2985,
            "y": 0.384,
            "z": -0.6258
          }
        }
      ],
      "lstSymAPs": [],
      "mol": {
        "atoms": [
          {
            "elSymbol": "C",
            "p3d": {
              "x": -1.0244,
              "y": -0.2225,
              "z": 1.3991
            }
          },
          {
            "elSymbol": "C",
            "p3d": {
              "x": 0.3973,
              "y": -0.042,
              "z": 0.8195
            }
          },
          {
            "elSymbol": "H",
            "p3d": {
              "x": -1.5635,
              "y": -0.9908,
              "z": 0.8263
            }
          },
          {
            "elSymbol": "H",
            "p3d": {
              "x": -0.941,
              "y": -0.535,
              "z": 2.446
            }
          },
          {
            "elSymbol": "H",
            "p3d": {
              "x": -1.5586,
              "y": 0.7335,
              "z": 1.3382
            }
          },
          {
            "elSymbol": "H",
            "p3d": {
              "x": 0.9335,
              "y": 0.7221,
              "z": 1.4011
            }
          },
          {
            "elSymbol": "H",
            "p3d": {
              "x": 0.927,
              "y": -1.0102,
              "z": 0.9001
            }
          }
        ],
        "bonds": [
          {
            "atomIds": [
              0,
              1
            ],
            "bo": "SINGLE"
          },
          {
            "atomIds": [
              0,
              2
            ],
            "bo": "SINGLE"
          },
          {
            "atomIds": [
              0,
              3
            ],
            "bo": "SINGLE"
          },
          {
            "atomIds": [
              0,
              4
            ],
            "bo": "SINGLE"
          },
          {
            "atomIds": [
              1,
              5
            ],
            "bo": "SINGLE"
          },
          {
            "atomIds": [
              1,
              6
            ],
            "bo": "SINGLE"
          }
        ]
      },
      "vertexId": 98396,
      "buildingBlockId": 31,
      "buildingBlockType": "FRAGMENT",
      "isRCV": false,
      "properties": {
        "ATTACHMENT_POINTS": "2#SubRS:1:SINGLE:0.2985%0.3840%-0.6258 "
      },
      "uniquefyingPropertyKeys": [],
      "allowedMutationTypes": [
        "DELETE",
        "EXTEND",
        "CHANGEBRANCH",
        "CHANGELINK",
        "ADDLINK",
        "DELETELINK",
        "DELETECHAIN"
      ],
      "vertexType": "MolecularFragment"
    },
    {
      "lstAPs": [
        {
          "id": 129822,
          "atomPositionNumber": 1,
          "atomPositionNumberInMol": 36,
          "apClass": {
            "rule": "SubRS",
            "subClass": 1,
            "bndTyp": "SINGLE"
          },
          "dirVec": {
            "x": 0.2985,
            "y": 0.384,
            "z": -0.6258
          }
        }
      ],
      "lstSymAPs": [],
      "mol": {
        "atoms": [
          {
            "elSymbol": "C",
            "p3d": {
              "x": -1.0244,
              "y": -0.2225,
              "z": 1.3991
            }
          },
          {
            "elSymbol": "C",
            "p3d": {
              "x": 0.3973,
              "y": -0.042,
              "z": 0.8195
            }
          },
          {
            "elSymbol": "H",
            "p3d": {
              "x": -1.5635,
              "y": -0.9908,
              "z": 0.8263
            }
          },
          {
            "elSymbol": "H",
            "p3d": {
              "x": -0.941,
              "y": -0.535,
              "z": 2.446
            }
          },
          {
            "elSymbol": "H",
            "p3d": {
              "x": -1.5586,
              "y": 0.7335,
              "z": 1.3382
            }
          },
          {
            "elSymbol": "H",
            "p3d": {
              "x": 0.9335,
              "y": 0.7221,
              "z": 1.4011
            }
          },
          {
            "elSymbol": "H",
            "p3d": {
              "x": 0.927,
              "y": -1.0102,
              "z": 0.9001
            }
          }
        ],
        "bonds": [
          {
            "atomIds": [
              0,
              1
            ],
            "bo": "SINGLE"
          },
          {
            "atomIds": [
              0,
              2
            ],
            "bo": "SINGLE"
          },
          {
            "atomIds": [
              0,
              3
            ],
            "bo": "SINGLE"
          },
          {
            "atomIds": [
              0,
              4
            ],
            "bo": "SINGLE"
          },
          {
            "atomIds": [
              1,
              5
            ],
            "bo": "SINGLE"
          },
          {
            "atomIds": [
              1,
              6
            ],
            "bo": "SINGLE"
          }
        ]
      },
      "vertexId": 98658,
      "buildingBlockId": 31,
      "buildingBlockType": "FRAGMENT",
      "isRCV": false,
      "properties": {
        "ATTACHMENT_POINTS": "2#SubRS:1:SINGLE:0.2985%0.3840%-0.6258 "
      },
      "uniquefyingPropertyKeys": [],
      "allowedMutationTypes": [
        "DELETE",
        "EXTEND",
        "CHANGEBRANCH",
        "CHANGELINK",
        "ADDLINK",
        "DELETELINK",
        "DELETECHAIN"
      ],
      "vertexType": "MolecularFragment"
    }
  ],
  "gEdges": [
    {
      "srcAPID": 129787,
      "trgAPID": 129790,
      "bondType": "SINGLE"
    },
    {
      "srcAPID": 129789,
      "trgAPID": 129794,
      "bondType": "SINGLE"
    },
    {
      "srcAPID": 129788,
      "trgAPID": 129795,
      "bondType": "SINGLE"
    },
    {
      "srcAPID": 129793,
      "trgAPID": 129820,
      "bondType": "SINGLE"
    },
    {
      "srcAPID": 129791,
      "trgAPID": 129821,
      "bondType": "SINGLE"
    },
    {
      "srcAPID": 129792,
      "trgAPID": 129822,
      "bondType": "SINGLE"
    }
  ],
  "gRings": [],
  "symVertices": [
    {
      "symIds": [
        98396,
        98658
      ]
    }
  ]
}

> <SMILES>
[Pt](C#O)(OC([H])([H])[H])([P](C1([H])C(C([H])([H])C(C([H])([H])C1([H])[H])([H])[H])([H])[H])(C(C([H])([H])[H])([H])[H])C(C([H])([H])[H])([H])[H])C#N

$$$$
