M00009784
  CDK     04222212113D

 63 64  0  0  0  0  0  0  0  0999 V2000
   -3.0218    0.1666   -0.6816 Pt  0  0  0  0  0  0  0  0  0  0  0  0
   -4.9488    0.3782   -0.6484 C   0  0  0  0  0  0  0  0  0  0  0  0
   -6.0848    0.4996   -0.6205 O   0  0  0  0  0  0  0  0  0  0  0  0
   -3.1167   -0.2860   -2.6225 C   0  0  0  0  0  0  0  0  0  0  0  0
   -3.1679   -0.5346   -3.7498 N   0  0  0  0  0  0  0  0  0  0  0  0
   -0.7463   -0.0556   -0.6623 P   0  0  0  0  0  0  0  0  0  0  0  0
   -0.1003   -0.9545    0.8308 C   0  0  0  0  0  0  0  0  0  0  0  0
    0.5680   -0.0550    1.5812 C   0  0  0  0  0  0  0  0  0  0  0  0
    0.6157    1.3552    1.0445 C   0  0  0  0  0  0  0  0  0  0  0  0
    0.0033    1.5630   -0.1394 C   0  0  0  0  0  0  0  0  0  0  0  0
    2.1660   -1.5461    2.8406 C   0  0  0  0  0  0  0  0  0  0  0  0
    1.1950   -0.3640    2.9250 C   0  0  0  0  0  0  0  0  0  0  0  0
    0.0902   -0.6012    3.9593 C   0  0  0  0  0  0  0  0  0  0  0  0
   -0.6426    0.2209    3.9590 H   0  0  0  0  0  0  0  0  0  0  0  0
    0.4991   -0.6825    4.9710 H   0  0  0  0  0  0  0  0  0  0  0  0
   -0.4772   -1.5167    3.7550 H   0  0  0  0  0  0  0  0  0  0  0  0
    2.6711   -1.7066    3.7999 H   0  0  0  0  0  0  0  0  0  0  0  0
    1.6435   -2.4814    2.5891 H   0  0  0  0  0  0  0  0  0  0  0  0
    2.9363   -1.3816    2.0804 H   0  0  0  0  0  0  0  0  0  0  0  0
    1.7934    0.5332    3.2650 H   0  0  0  0  0  0  0  0  0  0  0  0
    0.0892   -0.7176   -2.2279 C   0  0  0  0  0  0  0  0  0  0  0  0
    2.2831   -1.0742   -3.4044 C   0  0  0  0  0  0  0  0  0  0  0  0
    0.4081   -2.7531   -3.6700 C   0  0  0  0  0  0  0  0  0  0  0  0
    1.9279   -2.5509   -3.6227 C   0  0  0  0  0  0  0  0  0  0  0  0
   -0.2749   -2.1977   -2.4091 C   0  0  0  0  0  0  0  0  0  0  0  0
    1.6077   -0.5180   -2.1387 C   0  0  0  0  0  0  0  0  0  0  0  0
    1.9733   -0.4813   -4.2872 H   0  0  0  0  0  0  0  0  0  0  0  0
   -0.0124   -2.2573   -4.5684 H   0  0  0  0  0  0  0  0  0  0  0  0
    2.3651   -3.1670   -2.8140 H   0  0  0  0  0  0  0  0  0  0  0  0
    0.0379   -2.8069   -1.5300 H   0  0  0  0  0  0  0  0  0  0  0  0
    2.0325   -1.0348   -1.2531 H   0  0  0  0  0  0  0  0  0  0  0  0
   -0.3087   -0.1390   -3.1058 H   0  0  0  0  0  0  0  0  0  0  0  0
    3.3798   -0.9556   -3.3259 H   0  0  0  0  0  0  0  0  0  0  0  0
    0.1700   -3.8277   -3.7807 H   0  0  0  0  0  0  0  0  0  0  0  0
    2.3847   -2.9129   -4.5633 H   0  0  0  0  0  0  0  0  0  0  0  0
   -1.3729   -2.3355   -2.5142 H   0  0  0  0  0  0  0  0  0  0  0  0
    1.8714    0.5535   -2.0315 H   0  0  0  0  0  0  0  0  0  0  0  0
   -1.9401   -2.5906    1.2343 C   0  0  0  0  0  0  0  0  0  0  0  0
   -0.4371   -2.3849    1.0303 C   0  0  0  0  0  0  0  0  0  0  0  0
   -2.5381   -2.3158    0.3517 H   0  0  0  0  0  0  0  0  0  0  0  0
   -2.1659   -3.6385    1.4627 H   0  0  0  0  0  0  0  0  0  0  0  0
   -2.3138   -1.9840    2.0738 H   0  0  0  0  0  0  0  0  0  0  0  0
    0.1180   -2.7876    1.9129 H   0  0  0  0  0  0  0  0  0  0  0  0
   -0.0820   -2.9954    0.1627 H   0  0  0  0  0  0  0  0  0  0  0  0
    0.1652    3.3169    2.4963 C   0  0  0  0  0  0  0  0  0  0  0  0
    1.2615    2.4439    1.8760 C   0  0  0  0  0  0  0  0  0  0  0  0
    2.2644    3.2700    1.0653 C   0  0  0  0  0  0  0  0  0  0  0  0
    3.0092    2.6334    0.5766 H   0  0  0  0  0  0  0  0  0  0  0  0
    2.8003    3.9766    1.7095 H   0  0  0  0  0  0  0  0  0  0  0  0
    1.7652    3.8604    0.2827 H   0  0  0  0  0  0  0  0  0  0  0  0
    0.5836    4.0494    3.1934 H   0  0  0  0  0  0  0  0  0  0  0  0
   -0.4029    3.8668    1.7370 H   0  0  0  0  0  0  0  0  0  0  0  0
   -0.5651    2.7072    3.0499 H   0  0  0  0  0  0  0  0  0  0  0  0
    1.8363    1.9642    2.7237 H   0  0  0  0  0  0  0  0  0  0  0  0
   -1.7610    3.0593   -1.0852 C   0  0  0  0  0  0  0  0  0  0  0  0
   -0.2602    2.7847   -0.9385 C   0  0  0  0  0  0  0  0  0  0  0  0
   -2.2587    2.3718   -1.7899 H   0  0  0  0  0  0  0  0  0  0  0  0
   -2.2829    2.9823   -0.1179 H   0  0  0  0  0  0  0  0  0  0  0  0
   -1.9346    4.0739   -1.4647 H   0  0  0  0  0  0  0  0  0  0  0  0
    0.2135    2.7121   -1.9425 H   0  0  0  0  0  0  0  0  0  0  0  0
    0.2316    3.6650   -0.4553 H   0  0  0  0  0  0  0  0  0  0  0  0
   -2.9141    0.6476    1.2546 C   0  0  0  0  0  0  0  0  0  0  0  0
   -2.8292    0.9363    2.3705 N   0  0  0  0  0  0  0  0  0  0  0  0
  2  3  3  0  0  0  0
  1  2  1  0  0  0  0
  4  5  3  0  0  0  0
  1  4  1  0  0  0  0
  7  6  1  0  0  0  0
  8  7  2  0  0  0  0
  9  8  1  0  0  0  0
 10  6  1  0  0  0  0
  9 10  2  0  0  0  0
  1  6  1  0  0  0  0
 11 12  1  0  0  0  0
 12 13  1  0  0  0  0
 13 14  1  0  0  0  0
 13 15  1  0  0  0  0
 13 16  1  0  0  0  0
 11 17  1  0  0  0  0
 11 18  1  0  0  0  0
 11 19  1  0  0  0  0
 12 20  1  0  0  0  0
  8 12  1  0  0  0  0
 21 32  1  0  0  0  0
 21 25  1  0  0  0  0
 21 26  1  0  0  0  0
 22 27  1  0  0  0  0
 22 33  1  0  0  0  0
 22 24  1  0  0  0  0
 22 26  1  0  0  0  0
 23 28  1  0  0  0  0
 23 34  1  0  0  0  0
 23 25  1  0  0  0  0
 23 24  1  0  0  0  0
 24 29  1  0  0  0  0
 24 35  1  0  0  0  0
 25 30  1  0  0  0  0
 25 36  1  0  0  0  0
 26 31  1  0  0  0  0
 26 37  1  0  0  0  0
  6 21  1  0  0  0  0
 38 39  1  0  0  0  0
 38 40  1  0  0  0  0
 38 41  1  0  0  0  0
 38 42  1  0  0  0  0
 39 43  1  0  0  0  0
 39 44  1  0  0  0  0
  7 39  1  0  0  0  0
 45 46  1  0  0  0  0
 46 47  1  0  0  0  0
 47 48  1  0  0  0  0
 47 49  1  0  0  0  0
 47 50  1  0  0  0  0
 45 51  1  0  0  0  0
 45 52  1  0  0  0  0
 45 53  1  0  0  0  0
 46 54  1  0  0  0  0
  9 46  1  0  0  0  0
 55 56  1  0  0  0  0
 55 57  1  0  0  0  0
 55 58  1  0  0  0  0
 55 59  1  0  0  0  0
 56 60  1  0  0  0  0
 56 61  1  0  0  0  0
 10 56  1  0  0  0  0
 62 63  3  0  0  0  0
  1 62  1  0  0  0  0
M  END
> <PM6_ENERGY>
-96.889

> <UID>
QPIXLYSLFZNCQR-MSHSAEDSNA-N

> <FITNESS>
1.14281

> <GCODE>
10771

> <GraphENC>
10771 72_1_0,81_66_1,116_56_1,87_66_1,216868_33_1,216853_35_1,216859_32_1,219773_33_1,219774_32_1, 72_0_81_0_SINGLE_Xlig:0_Xlig:1,72_2_116_1_SINGLE_scaff:0_MPhosphole:1,72_1_87_0_SINGLE_Xlig:0_Xlig:1,116_3_216868_0_SINGLE_LPhospholeSubBeta:0_SubRM:1,116_0_216853_0_SINGLE_LPhospholeSubR:0_SubRM:1,116_2_216859_0_SINGLE_LPhospholeSubAlpha:0_SubRS:1,116_4_219773_0_SINGLE_LPhospholeSubBeta:0_SubRM:1,116_5_219774_0_SINGLE_LPhospholeSubAlpha:0_SubRS:1, SymmetricSet [symIds=[216859, 219774]] SymmetricSet [symIds=[216868, 219773]] 

> <GraphJson>
{
  "graphId": 10771,
  "gVertices": [
    {
      "lstAPs": [
        {
          "id": 287092,
          "atomPositionNumber": 0,
          "atomPositionNumberInMol": 0,
          "apClass": {
            "rule": "Xlig",
            "subClass": 0,
            "bndTyp": "SINGLE"
          },
          "dirVec": {
            "x": -2.3339,
            "y": -0.0087,
            "z": 0.8172
          }
        },
        {
          "id": 287093,
          "atomPositionNumber": 0,
          "atomPositionNumberInMol": 0,
          "apClass": {
            "rule": "Xlig",
            "subClass": 0,
            "bndTyp": "SINGLE"
          },
          "dirVec": {
            "x": 2.336,
            "y": -5.0E-4,
            "z": 0.829
          }
        },
        {
          "id": 287094,
          "atomPositionNumber": 0,
          "atomPositionNumberInMol": 0,
          "apClass": {
            "rule": "scaff",
            "subClass": 0,
            "bndTyp": "SINGLE"
          },
          "dirVec": {
            "x": -0.0095,
            "y": 0.0046,
            "z": -1.7113
          }
        }
      ],
      "lstSymAPs": [
        {
          "symIds": [
            0,
            1
          ]
        }
      ],
      "mol": {
        "atoms": [
          {
            "elSymbol": "Pt",
            "p3d": {
              "x": -0.0098,
              "y": 0.0049,
              "z": 0.6289
            }
          },
          {
            "elSymbol": "C",
            "p3d": {
              "x": -6.0E-4,
              "y": 0.0016,
              "z": 2.5609
            }
          },
          {
            "elSymbol": "O",
            "p3d": {
              "x": 0.0025,
              "y": -0.0041,
              "z": 3.6974
            }
          },
          {
            "elSymbol": "Du",
            "p3d": {
              "x": -0.007,
              "y": 1.0013,
              "z": 0.6372
            }
          },
          {
            "elSymbol": "Du",
            "p3d": {
              "x": -0.0014,
              "y": 0.9902,
              "z": 2.5698
            }
          }
        ],
        "bonds": [
          {
            "atomIds": [
              1,
              2
            ],
            "bo": "TRIPLE"
          },
          {
            "atomIds": [
              0,
              1
            ],
            "bo": "SINGLE"
          },
          {
            "atomIds": [
              3,
              0
            ],
            "bo": "SINGLE"
          },
          {
            "atomIds": [
              4,
              1
            ],
            "bo": "SINGLE"
          }
        ]
      },
      "vertexId": 72,
      "buildingBlockId": 0,
      "buildingBlockType": "SCAFFOLD",
      "isRCV": false,
      "properties": {
        "ATTACHMENT_POINTS": "1#Xlig:0:SINGLE:-2.3339%-0.0087%0.8172,Xlig:0:SINGLE:2.3360%-0.0005%0.8290,scaff:0:SINGLE:-0.0095%0.0046%-1.7113 "
      },
      "uniquefyingPropertyKeys": [],
      "allowedMutationTypes": [
        "DELETE",
        "EXTEND",
        "CHANGEBRANCH",
        "CHANGELINK",
        "ADDLINK",
        "DELETELINK",
        "DELETECHAIN"
      ],
      "vertexType": "MolecularFragment"
    },
    {
      "lstAPs": [
        {
          "id": 287095,
          "atomPositionNumber": 0,
          "atomPositionNumberInMol": 5,
          "apClass": {
            "rule": "Xlig",
            "subClass": 1,
            "bndTyp": "SINGLE"
          },
          "dirVec": {
            "x": 0.0192,
            "y": -0.0048,
            "z": -0.5645
          }
        }
      ],
      "lstSymAPs": [],
      "mol": {
        "atoms": [
          {
            "elSymbol": "C",
            "p3d": {
              "x": -1.967,
              "y": -0.0075,
              "z": -0.4937
            }
          },
          {
            "elSymbol": "N",
            "p3d": {
              "x": -3.1263,
              "y": -0.0054,
              "z": -0.4354
            }
          },
          {
            "elSymbol": "Du",
            "p3d": {
              "x": -1.9744,
              "y": 0.9926,
              "z": -0.5036
            }
          }
        ],
        "bonds": [
          {
            "atomIds": [
              0,
              1
            ],
            "bo": "TRIPLE"
          },
          {
            "atomIds": [
              2,
              0
            ],
            "bo": "SINGLE"
          }
        ]
      },
      "vertexId": 81,
      "buildingBlockId": 65,
      "buildingBlockType": "FRAGMENT",
      "isRCV": false,
      "properties": {
        "ATTACHMENT_POINTS": "1#Xlig:1:SINGLE:0.0192%-0.0048%-0.5645 "
      },
      "uniquefyingPropertyKeys": [],
      "allowedMutationTypes": [
        "DELETE",
        "EXTEND",
        "CHANGEBRANCH",
        "CHANGELINK",
        "ADDLINK",
        "DELETELINK",
        "DELETECHAIN"
      ],
      "vertexType": "MolecularFragment"
    },
    {
      "lstAPs": [
        {
          "id": 287096,
          "atomPositionNumber": 0,
          "atomPositionNumberInMol": 8,
          "apClass": {
            "rule": "LPhospholeSubR",
            "subClass": 0,
            "bndTyp": "SINGLE"
          },
          "dirVec": {
            "x": -0.1583,
            "y": -3.1445,
            "z": -2.0557
          }
        },
        {
          "id": 287097,
          "atomPositionNumber": 0,
          "atomPositionNumberInMol": 8,
          "apClass": {
            "rule": "MPhosphole",
            "subClass": 1,
            "bndTyp": "SINGLE"
          },
          "dirVec": {
            "x": -0.003,
            "y": -0.0033,
            "z": 0.0013
          }
        },
        {
          "id": 287098,
          "atomPositionNumber": 1,
          "atomPositionNumberInMol": 9,
          "apClass": {
            "rule": "LPhospholeSubAlpha",
            "subClass": 0,
            "bndTyp": "SINGLE"
          },
          "dirVec": {
            "x": 3.2115,
            "y": -2.5535,
            "z": -1.0585
          }
        },
        {
          "id": 287099,
          "atomPositionNumber": 2,
          "atomPositionNumberInMol": 10,
          "apClass": {
            "rule": "LPhospholeSubBeta",
            "subClass": 0,
            "bndTyp": "SINGLE"
          },
          "dirVec": {
            "x": 4.2656,
            "y": -1.1283,
            "z": -3.6461
          }
        },
        {
          "id": 287100,
          "atomPositionNumber": 3,
          "atomPositionNumberInMol": 11,
          "apClass": {
            "rule": "LPhospholeSubBeta",
            "subClass": 0,
            "bndTyp": "SINGLE"
          },
          "dirVec": {
            "x": 2.053,
            "y": 0.1072,
            "z": -5.2957
          }
        },
        {
          "id": 287101,
          "atomPositionNumber": 4,
          "atomPositionNumberInMol": 12,
          "apClass": {
            "rule": "LPhospholeSubAlpha",
            "subClass": 0,
            "bndTyp": "SINGLE"
          },
          "dirVec": {
            "x": -0.7998,
            "y": -0.3182,
            "z": -4.0879
          }
        }
      ],
      "lstSymAPs": [
        {
          "symIds": [
            2,
            5
          ]
        },
        {
          "symIds": [
            3,
            4
          ]
        }
      ],
      "mol": {
        "atoms": [
          {
            "elSymbol": "P",
            "p3d": {
              "x": 0.6287,
              "y": -1.5145,
              "z": -1.8705
            }
          },
          {
            "elSymbol": "C",
            "p3d": {
              "x": 2.405,
              "y": -1.8003,
              "z": -2.0775
            }
          },
          {
            "elSymbol": "C",
            "p3d": {
              "x": 2.8079,
              "y": -1.1982,
              "z": -3.1964
            }
          },
          {
            "elSymbol": "C",
            "p3d": {
              "x": 1.7253,
              "y": -0.6,
              "z": -4.0254
            }
          },
          {
            "elSymbol": "C",
            "p3d": {
              "x": 0.5038,
              "y": -0.7649,
              "z": -3.5177
            }
          }
        ],
        "bonds": [
          {
            "atomIds": [
              1,
              0
            ],
            "bo": "SINGLE"
          },
          {
            "atomIds": [
              2,
              1
            ],
            "bo": "DOUBLE"
          },
          {
            "atomIds": [
              3,
              2
            ],
            "bo": "SINGLE"
          },
          {
            "atomIds": [
              4,
              0
            ],
            "bo": "SINGLE"
          },
          {
            "atomIds": [
              3,
              4
            ],
            "bo": "DOUBLE"
          }
        ]
      },
      "vertexId": 116,
      "buildingBlockId": 55,
      "buildingBlockType": "FRAGMENT",
      "isRCV": false,
      "properties": {
        "ATTACHMENT_POINTS": "1#LPhospholeSubR:0:SINGLE:-0.1583%-3.1445%-2.0557,MPhosphole:1:SINGLE:-0.0030%-0.0033%0.0013 2#LPhospholeSubAlpha:0:SINGLE:3.2115%-2.5535%-1.0585 3#LPhospholeSubBeta:0:SINGLE:4.2656%-1.1283%-3.6461 4#LPhospholeSubBeta:0:SINGLE:2.0530%0.1072%-5.2957 5#LPhospholeSubAlpha:0:SINGLE:-0.7998%-0.3182%-4.0879 "
      },
      "uniquefyingPropertyKeys": [],
      "allowedMutationTypes": [
        "DELETE",
        "EXTEND",
        "CHANGEBRANCH",
        "CHANGELINK",
        "ADDLINK",
        "DELETELINK",
        "DELETECHAIN"
      ],
      "vertexType": "MolecularFragment"
    },
    {
      "lstAPs": [
        {
          "id": 287102,
          "atomPositionNumber": 0,
          "atomPositionNumberInMol": 64,
          "apClass": {
            "rule": "Xlig",
            "subClass": 1,
            "bndTyp": "SINGLE"
          },
          "dirVec": {
            "x": 0.0192,
            "y": -0.0048,
            "z": -0.5645
          }
        }
      ],
      "lstSymAPs": [],
      "mol": {
        "atoms": [
          {
            "elSymbol": "C",
            "p3d": {
              "x": -1.967,
              "y": -0.0075,
              "z": -0.4937
            }
          },
          {
            "elSymbol": "N",
            "p3d": {
              "x": -3.1263,
              "y": -0.0054,
              "z": -0.4354
            }
          },
          {
            "elSymbol": "Du",
            "p3d": {
              "x": -1.9744,
              "y": 0.9926,
              "z": -0.5036
            }
          }
        ],
        "bonds": [
          {
            "atomIds": [
              0,
              1
            ],
            "bo": "TRIPLE"
          },
          {
            "atomIds": [
              2,
              0
            ],
            "bo": "SINGLE"
          }
        ]
      },
      "vertexId": 87,
      "buildingBlockId": 65,
      "buildingBlockType": "FRAGMENT",
      "isRCV": false,
      "properties": {
        "ATTACHMENT_POINTS": "1#Xlig:1:SINGLE:0.0192%-0.0048%-0.5645 "
      },
      "uniquefyingPropertyKeys": [],
      "allowedMutationTypes": [
        "DELETE",
        "EXTEND",
        "CHANGEBRANCH",
        "CHANGELINK",
        "ADDLINK",
        "DELETELINK",
        "DELETECHAIN"
      ],
      "vertexType": "MolecularFragment"
    },
    {
      "lstAPs": [
        {
          "id": 287151,
          "atomPositionNumber": 1,
          "atomPositionNumberInMol": 14,
          "apClass": {
            "rule": "SubRM",
            "subClass": 1,
            "bndTyp": "SINGLE"
          },
          "dirVec": {
            "x": 0.2868,
            "y": 0.385,
            "z": -0.643
          }
        }
      ],
      "lstSymAPs": [],
      "mol": {
        "atoms": [
          {
            "elSymbol": "C",
            "p3d": {
              "x": 1.141,
              "y": 1.0262,
              "z": 1.6347
            }
          },
          {
            "elSymbol": "C",
            "p3d": {
              "x": 0.3967,
              "y": -0.0479,
              "z": 0.8227
            }
          },
          {
            "elSymbol": "C",
            "p3d": {
              "x": 1.1459,
              "y": -1.371,
              "z": 0.9201
            }
          },
          {
            "elSymbol": "H",
            "p3d": {
              "x": 2.1461,
              "y": -1.2583,
              "z": 0.4976
            }
          },
          {
            "elSymbol": "H",
            "p3d": {
              "x": 0.6013,
              "y": -2.1408,
              "z": 0.3461
            }
          },
          {
            "elSymbol": "H",
            "p3d": {
              "x": 1.2113,
              "y": -1.6946,
              "z": 1.9559
            }
          },
          {
            "elSymbol": "H",
            "p3d": {
              "x": 2.1541,
              "y": 1.1435,
              "z": 1.2119
            }
          },
          {
            "elSymbol": "H",
            "p3d": {
              "x": 0.6143,
              "y": 1.976,
              "z": 1.5626
            }
          },
          {
            "elSymbol": "H",
            "p3d": {
              "x": 1.2058,
              "y": 0.7088,
              "z": 2.6868
            }
          },
          {
            "elSymbol": "H",
            "p3d": {
              "x": -0.6215,
              "y": -0.1789,
              "z": 1.2377
            }
          }
        ],
        "bonds": [
          {
            "atomIds": [
              0,
              1
            ],
            "bo": "SINGLE"
          },
          {
            "atomIds": [
              1,
              2
            ],
            "bo": "SINGLE"
          },
          {
            "atomIds": [
              2,
              3
            ],
            "bo": "SINGLE"
          },
          {
            "atomIds": [
              2,
              4
            ],
            "bo": "SINGLE"
          },
          {
            "atomIds": [
              2,
              5
            ],
            "bo": "SINGLE"
          },
          {
            "atomIds": [
              0,
              6
            ],
            "bo": "SINGLE"
          },
          {
            "atomIds": [
              0,
              7
            ],
            "bo": "SINGLE"
          },
          {
            "atomIds": [
              0,
              8
            ],
            "bo": "SINGLE"
          },
          {
            "atomIds": [
              1,
              9
            ],
            "bo": "SINGLE"
          }
        ]
      },
      "vertexId": 216868,
      "buildingBlockId": 32,
      "buildingBlockType": "FRAGMENT",
      "isRCV": false,
      "properties": {
        "ATTACHMENT_POINTS": "2#SubRM:1:SINGLE:0.2868%0.3850%-0.6430 "
      },
      "uniquefyingPropertyKeys": [],
      "allowedMutationTypes": [
        "DELETE",
        "EXTEND",
        "CHANGEBRANCH",
        "CHANGELINK",
        "ADDLINK",
        "DELETELINK",
        "DELETECHAIN"
      ],
      "vertexType": "MolecularFragment"
    },
    {
      "lstAPs": [
        {
          "id": 287152,
          "atomPositionNumber": 0,
          "atomPositionNumberInMol": 23,
          "apClass": {
            "rule": "SubRM",
            "subClass": 1,
            "bndTyp": "SINGLE"
          },
          "dirVec": {
            "x": 0.2917,
            "y": 0.3929,
            "z": -0.6365
          }
        }
      ],
      "lstSymAPs": [],
      "mol": {
        "atoms": [
          {
            "elSymbol": "C",
            "p3d": {
              "x": 1.7002,
              "y": 0.56,
              "z": -1.2045
            }
          },
          {
            "elSymbol": "C",
            "p3d": {
              "x": 3.564,
              "y": -0.7339,
              "z": -2.2652
            }
          },
          {
            "elSymbol": "C",
            "p3d": {
              "x": 2.9237,
              "y": 1.5034,
              "z": -3.1926
            }
          },
          {
            "elSymbol": "C",
            "p3d": {
              "x": 3.4145,
              "y": 0.0994,
              "z": -3.5498
            }
          },
          {
            "elSymbol": "C",
            "p3d": {
              "x": 1.5576,
              "y": 1.3879,
              "z": -2.5024
            }
          },
          {
            "elSymbol": "C",
            "p3d": {
              "x": 2.203,
              "y": -0.843,
              "z": -1.5702
            }
          },
          {
            "elSymbol": "H",
            "p3d": {
              "x": 4.3384,
              "y": -0.3241,
              "z": -1.6106
            }
          },
          {
            "elSymbol": "H",
            "p3d": {
              "x": 3.6361,
              "y": 2.0524,
              "z": -2.5991
            }
          },
          {
            "elSymbol": "H",
            "p3d": {
              "x": 2.7828,
              "y": -0.3911,
              "z": -4.2916
            }
          },
          {
            "elSymbol": "H",
            "p3d": {
              "x": 0.7737,
              "y": 0.9833,
              "z": -3.15
            }
          },
          {
            "elSymbol": "H",
            "p3d": {
              "x": 1.4815,
              "y": -1.3988,
              "z": -2.1783
            }
          },
          {
            "elSymbol": "H",
            "p3d": {
              "x": 2.3445,
              "y": 1.0609,
              "z": -0.4835
            }
          },
          {
            "elSymbol": "H",
            "p3d": {
              "x": 3.8429,
              "y": -1.7623,
              "z": -2.577
            }
          },
          {
            "elSymbol": "H",
            "p3d": {
              "x": 2.7428,
              "y": 2.0124,
              "z": -4.146
            }
          },
          {
            "elSymbol": "H",
            "p3d": {
              "x": 4.4291,
              "y": 0.2183,
              "z": -3.9628
            }
          },
          {
            "elSymbol": "H",
            "p3d": {
              "x": 1.2819,
              "y": 2.4034,
              "z": -2.1821
            }
          },
          {
            "elSymbol": "H",
            "p3d": {
              "x": 2.3734,
              "y": -1.3662,
              "z": -0.6149
            }
          }
        ],
        "bonds": [
          {
            "atomIds": [
              0,
              11
            ],
            "bo": "SINGLE"
          },
          {
            "atomIds": [
              0,
              4
            ],
            "bo": "SINGLE"
          },
          {
            "atomIds": [
              0,
              5
            ],
            "bo": "SINGLE"
          },
          {
            "atomIds": [
              1,
              6
            ],
            "bo": "SINGLE"
          },
          {
            "atomIds": [
              1,
              12
            ],
            "bo": "SINGLE"
          },
          {
            "atomIds": [
              1,
              3
            ],
            "bo": "SINGLE"
          },
          {
            "atomIds": [
              1,
              5
            ],
            "bo": "SINGLE"
          },
          {
            "atomIds": [
              2,
              7
            ],
            "bo": "SINGLE"
          },
          {
            "atomIds": [
              2,
              13
            ],
            "bo": "SINGLE"
          },
          {
            "atomIds": [
              2,
              4
            ],
            "bo": "SINGLE"
          },
          {
            "atomIds": [
              2,
              3
            ],
            "bo": "SINGLE"
          },
          {
            "atomIds": [
              3,
              8
            ],
            "bo": "SINGLE"
          },
          {
            "atomIds": [
              3,
              14
            ],
            "bo": "SINGLE"
          },
          {
            "atomIds": [
              4,
              9
            ],
            "bo": "SINGLE"
          },
          {
            "atomIds": [
              4,
              15
            ],
            "bo": "SINGLE"
          },
          {
            "atomIds": [
              5,
              10
            ],
            "bo": "SINGLE"
          },
          {
            "atomIds": [
              5,
              16
            ],
            "bo": "SINGLE"
          }
        ]
      },
      "vertexId": 216853,
      "buildingBlockId": 34,
      "buildingBlockType": "FRAGMENT",
      "isRCV": false,
      "properties": {
        "ATTACHMENT_POINTS": "1#SubRM:1:SINGLE:0.2917%0.3929%-0.6365 "
      },
      "uniquefyingPropertyKeys": [],
      "allowedMutationTypes": [
        "DELETE",
        "EXTEND",
        "CHANGEBRANCH",
        "CHANGELINK",
        "ADDLINK",
        "DELETELINK",
        "DELETECHAIN"
      ],
      "vertexType": "MolecularFragment"
    },
    {
      "lstAPs": [
        {
          "id": 287153,
          "atomPositionNumber": 1,
          "atomPositionNumberInMol": 41,
          "apClass": {
            "rule": "SubRS",
            "subClass": 1,
            "bndTyp": "SINGLE"
          },
          "dirVec": {
            "x": 0.2985,
            "y": 0.384,
            "z": -0.6258
          }
        }
      ],
      "lstSymAPs": [],
      "mol": {
        "atoms": [
          {
            "elSymbol": "C",
            "p3d": {
              "x": -1.0244,
              "y": -0.2225,
              "z": 1.3991
            }
          },
          {
            "elSymbol": "C",
            "p3d": {
              "x": 0.3973,
              "y": -0.042,
              "z": 0.8195
            }
          },
          {
            "elSymbol": "H",
            "p3d": {
              "x": -1.5635,
              "y": -0.9908,
              "z": 0.8263
            }
          },
          {
            "elSymbol": "H",
            "p3d": {
              "x": -0.941,
              "y": -0.535,
              "z": 2.446
            }
          },
          {
            "elSymbol": "H",
            "p3d": {
              "x": -1.5586,
              "y": 0.7335,
              "z": 1.3382
            }
          },
          {
            "elSymbol": "H",
            "p3d": {
              "x": 0.9335,
              "y": 0.7221,
              "z": 1.4011
            }
          },
          {
            "elSymbol": "H",
            "p3d": {
              "x": 0.927,
              "y": -1.0102,
              "z": 0.9001
            }
          }
        ],
        "bonds": [
          {
            "atomIds": [
              0,
              1
            ],
            "bo": "SINGLE"
          },
          {
            "atomIds": [
              0,
              2
            ],
            "bo": "SINGLE"
          },
          {
            "atomIds": [
              0,
              3
            ],
            "bo": "SINGLE"
          },
          {
            "atomIds": [
              0,
              4
            ],
            "bo": "SINGLE"
          },
          {
            "atomIds": [
              1,
              5
            ],
            "bo": "SINGLE"
          },
          {
            "atomIds": [
              1,
              6
            ],
            "bo": "SINGLE"
          }
        ]
      },
      "vertexId": 216859,
      "buildingBlockId": 31,
      "buildingBlockType": "FRAGMENT",
      "isRCV": false,
      "properties": {
        "ATTACHMENT_POINTS": "2#SubRS:1:SINGLE:0.2985%0.3840%-0.6258 "
      },
      "uniquefyingPropertyKeys": [],
      "allowedMutationTypes": [
        "DELETE",
        "EXTEND",
        "CHANGEBRANCH",
        "CHANGELINK",
        "ADDLINK",
        "DELETELINK",
        "DELETECHAIN"
      ],
      "vertexType": "MolecularFragment"
    },
    {
      "lstAPs": [
        {
          "id": 287154,
          "atomPositionNumber": 1,
          "atomPositionNumberInMol": 48,
          "apClass": {
            "rule": "SubRM",
            "subClass": 1,
            "bndTyp": "SINGLE"
          },
          "dirVec": {
            "x": 0.2868,
            "y": 0.385,
            "z": -0.643
          }
        }
      ],
      "lstSymAPs": [],
      "mol": {
        "atoms": [
          {
            "elSymbol": "C",
            "p3d": {
              "x": 1.141,
              "y": 1.0262,
              "z": 1.6347
            }
          },
          {
            "elSymbol": "C",
            "p3d": {
              "x": 0.3967,
              "y": -0.0479,
              "z": 0.8227
            }
          },
          {
            "elSymbol": "C",
            "p3d": {
              "x": 1.1459,
              "y": -1.371,
              "z": 0.9201
            }
          },
          {
            "elSymbol": "H",
            "p3d": {
              "x": 2.1461,
              "y": -1.2583,
              "z": 0.4976
            }
          },
          {
            "elSymbol": "H",
            "p3d": {
              "x": 0.6013,
              "y": -2.1408,
              "z": 0.3461
            }
          },
          {
            "elSymbol": "H",
            "p3d": {
              "x": 1.2113,
              "y": -1.6946,
              "z": 1.9559
            }
          },
          {
            "elSymbol": "H",
            "p3d": {
              "x": 2.1541,
              "y": 1.1435,
              "z": 1.2119
            }
          },
          {
            "elSymbol": "H",
            "p3d": {
              "x": 0.6143,
              "y": 1.976,
              "z": 1.5626
            }
          },
          {
            "elSymbol": "H",
            "p3d": {
              "x": 1.2058,
              "y": 0.7088,
              "z": 2.6868
            }
          },
          {
            "elSymbol": "H",
            "p3d": {
              "x": -0.6215,
              "y": -0.1789,
              "z": 1.2377
            }
          }
        ],
        "bonds": [
          {
            "atomIds": [
              0,
              1
            ],
            "bo": "SINGLE"
          },
          {
            "atomIds": [
              1,
              2
            ],
            "bo": "SINGLE"
          },
          {
            "atomIds": [
              2,
              3
            ],
            "bo": "SINGLE"
          },
          {
            "atomIds": [
              2,
              4
            ],
            "bo": "SINGLE"
          },
          {
            "atomIds": [
              2,
              5
            ],
            "bo": "SINGLE"
          },
          {
            "atomIds": [
              0,
              6
            ],
            "bo": "SINGLE"
          },
          {
            "atomIds": [
              0,
              7
            ],
            "bo": "SINGLE"
          },
          {
            "atomIds": [
              0,
              8
            ],
            "bo": "SINGLE"
          },
          {
            "atomIds": [
              1,
              9
            ],
            "bo": "SINGLE"
          }
        ]
      },
      "vertexId": 219773,
      "buildingBlockId": 32,
      "buildingBlockType": "FRAGMENT",
      "isRCV": false,
      "properties": {
        "ATTACHMENT_POINTS": "2#SubRM:1:SINGLE:0.2868%0.3850%-0.6430 "
      },
      "uniquefyingPropertyKeys": [],
      "allowedMutationTypes": [
        "DELETE",
        "EXTEND",
        "CHANGEBRANCH",
        "CHANGELINK",
        "ADDLINK",
        "DELETELINK",
        "DELETECHAIN"
      ],
      "vertexType": "MolecularFragment"
    },
    {
      "lstAPs": [
        {
          "id": 287155,
          "atomPositionNumber": 1,
          "atomPositionNumberInMol": 58,
          "apClass": {
            "rule": "SubRS",
            "subClass": 1,
            "bndTyp": "SINGLE"
          },
          "dirVec": {
            "x": 0.2985,
            "y": 0.384,
            "z": -0.6258
          }
        }
      ],
      "lstSymAPs": [],
      "mol": {
        "atoms": [
          {
            "elSymbol": "C",
            "p3d": {
              "x": -1.0244,
              "y": -0.2225,
              "z": 1.3991
            }
          },
          {
            "elSymbol": "C",
            "p3d": {
              "x": 0.3973,
              "y": -0.042,
              "z": 0.8195
            }
          },
          {
            "elSymbol": "H",
            "p3d": {
              "x": -1.5635,
              "y": -0.9908,
              "z": 0.8263
            }
          },
          {
            "elSymbol": "H",
            "p3d": {
              "x": -0.941,
              "y": -0.535,
              "z": 2.446
            }
          },
          {
            "elSymbol": "H",
            "p3d": {
              "x": -1.5586,
              "y": 0.7335,
              "z": 1.3382
            }
          },
          {
            "elSymbol": "H",
            "p3d": {
              "x": 0.9335,
              "y": 0.7221,
              "z": 1.4011
            }
          },
          {
            "elSymbol": "H",
            "p3d": {
              "x": 0.927,
              "y": -1.0102,
              "z": 0.9001
            }
          }
        ],
        "bonds": [
          {
            "atomIds": [
              0,
              1
            ],
            "bo": "SINGLE"
          },
          {
            "atomIds": [
              0,
              2
            ],
            "bo": "SINGLE"
          },
          {
            "atomIds": [
              0,
              3
            ],
            "bo": "SINGLE"
          },
          {
            "atomIds": [
              0,
              4
            ],
            "bo": "SINGLE"
          },
          {
            "atomIds": [
              1,
              5
            ],
            "bo": "SINGLE"
          },
          {
            "atomIds": [
              1,
              6
            ],
            "bo": "SINGLE"
          }
        ]
      },
      "vertexId": 219774,
      "buildingBlockId": 31,
      "buildingBlockType": "FRAGMENT",
      "isRCV": false,
      "properties": {
        "ATTACHMENT_POINTS": "2#SubRS:1:SINGLE:0.2985%0.3840%-0.6258 "
      },
      "uniquefyingPropertyKeys": [],
      "allowedMutationTypes": [
        "DELETE",
        "EXTEND",
        "CHANGEBRANCH",
        "CHANGELINK",
        "ADDLINK",
        "DELETELINK",
        "DELETECHAIN"
      ],
      "vertexType": "MolecularFragment"
    }
  ],
  "gEdges": [
    {
      "srcAPID": 287092,
      "trgAPID": 287095,
      "bondType": "SINGLE"
    },
    {
      "srcAPID": 287094,
      "trgAPID": 287097,
      "bondType": "SINGLE"
    },
    {
      "srcAPID": 287093,
      "trgAPID": 287102,
      "bondType": "SINGLE"
    },
    {
      "srcAPID": 287099,
      "trgAPID": 287151,
      "bondType": "SINGLE"
    },
    {
      "srcAPID": 287096,
      "trgAPID": 287152,
      "bondType": "SINGLE"
    },
    {
      "srcAPID": 287098,
      "trgAPID": 287153,
      "bondType": "SINGLE"
    },
    {
      "srcAPID": 287100,
      "trgAPID": 287154,
      "bondType": "SINGLE"
    },
    {
      "srcAPID": 287101,
      "trgAPID": 287155,
      "bondType": "SINGLE"
    }
  ],
  "gRings": [],
  "symVertices": [
    {
      "symIds": [
        216859,
        219774
      ]
    },
    {
      "symIds": [
        216868,
        219773
      ]
    }
  ]
}

> <SMILES>
[Pt](C#O)(C#N)([P]1(C(=C(C(=C1C(C([H])([H])[H])([H])[H])C(C([H])([H])[H])(C([H])([H])[H])[H])C(C([H])([H])[H])(C([H])([H])[H])[H])C(C([H])([H])[H])([H])[H])C2([H])C(C([H])([H])C(C([H])([H])C2([H])[H])([H])[H])([H])[H])C#N

$$$$
