M00010629
  CDK     04222212293D

 29 29  0  0  0  0  0  0  0  0999 V2000
   -2.2182   -0.4932   -0.1880 Pt  0  0  0  0  0  0  0  0  0  0  0  0
   -4.1612   -0.7213   -0.0928 C   0  0  0  0  0  0  0  0  0  0  0  0
   -5.2927   -0.8554   -0.0418 O   0  0  0  0  0  0  0  0  0  0  0  0
   -2.3055    1.4580    0.1163 C   0  0  0  0  0  0  0  0  0  0  0  0
   -2.3470    2.5993    0.2979 N   0  0  0  0  0  0  0  0  0  0  0  0
    0.0355   -0.1444   -0.2420 P   0  0  0  0  0  0  0  0  0  0  0  0
    0.6798    1.3271   -1.2173 C   0  0  0  0  0  0  0  0  0  0  0  0
   -0.1405    1.9860   -1.5683 H   0  0  0  0  0  0  0  0  0  0  0  0
    1.3311    1.9706   -0.5960 H   0  0  0  0  0  0  0  0  0  0  0  0
    1.4377    0.6739   -2.3740 C   0  0  0  0  0  0  0  0  0  0  0  0
    2.2658    1.3309   -2.7075 H   0  0  0  0  0  0  0  0  0  0  0  0
    0.7748    0.5759   -3.2607 H   0  0  0  0  0  0  0  0  0  0  0  0
    1.9941   -0.7126   -1.9853 C   0  0  0  0  0  0  0  0  0  0  0  0
    2.9581   -0.5973   -1.4482 H   0  0  0  0  0  0  0  0  0  0  0  0
    2.2435   -1.2837   -2.9032 H   0  0  0  0  0  0  0  0  0  0  0  0
    0.9956   -1.4952   -1.1350 C   0  0  0  0  0  0  0  0  0  0  0  0
    1.4785   -2.2071   -0.4439 H   0  0  0  0  0  0  0  0  0  0  0  0
    0.3052   -2.1133   -1.7520 H   0  0  0  0  0  0  0  0  0  0  0  0
   -0.4983   -0.8902    2.3242 C   0  0  0  0  0  0  0  0  0  0  0  0
    0.5778   -0.1034    1.5793 C   0  0  0  0  0  0  0  0  0  0  0  0
    0.7068    1.3251    2.0846 C   0  0  0  0  0  0  0  0  0  0  0  0
    1.5152    1.8875    1.6008 H   0  0  0  0  0  0  0  0  0  0  0  0
    0.9364    1.3262    3.1622 H   0  0  0  0  0  0  0  0  0  0  0  0
   -0.2189    1.9158    1.9857 H   0  0  0  0  0  0  0  0  0  0  0  0
   -0.2222   -1.0091    3.3835 H   0  0  0  0  0  0  0  0  0  0  0  0
   -1.4824   -0.3835    2.3290 H   0  0  0  0  0  0  0  0  0  0  0  0
   -0.6550   -1.9122    1.9374 H   0  0  0  0  0  0  0  0  0  0  0  0
    1.5652   -0.6204    1.6821 H   0  0  0  0  0  0  0  0  0  0  0  0
   -2.2591   -2.8339   -0.5269 Cl  0  0  0  0  0  0  0  0  0  0  0  0
  2  3  3  0  0  0  0
  1  2  1  0  0  0  0
  4  5  3  0  0  0  0
  1  4  1  0  0  0  0
  7  6  1  0  0  0  0
  8  7  1  0  0  0  0
  9  7  1  0  0  0  0
 10  7  1  0  0  0  0
 11 10  1  0  0  0  0
 12 10  1  0  0  0  0
 13 10  1  0  0  0  0
 13 16  1  0  0  0  0
 14 13  1  0  0  0  0
 15 13  1  0  0  0  0
 16  6  1  0  0  0  0
 17 16  1  0  0  0  0
 18 16  1  0  0  0  0
  1  6  1  0  0  0  0
 19 20  1  0  0  0  0
 20 21  1  0  0  0  0
 21 22  1  0  0  0  0
 21 23  1  0  0  0  0
 21 24  1  0  0  0  0
 19 25  1  0  0  0  0
 19 26  1  0  0  0  0
 19 27  1  0  0  0  0
 20 28  1  0  0  0  0
  6 20  1  0  0  0  0
  1 29  1  0  0  0  0
M  END
> <PM6_ENERGY>
-232.916

> <UID>
FEQCIKWFRMJCCM-ZSSMBEJANA-M

> <FITNESS>
1.14056

> <GCODE>
11656

> <GraphENC>
11656 72_1_0,81_66_1,104_42_1,88_67_1,238590_33_1, 72_0_81_0_SINGLE_Xlig:0_Xlig:1,72_2_104_1_SINGLE_scaff:0_MPhosphine:1,72_1_88_0_SINGLE_Xlig:0_Xlig:1,104_0_238590_0_SINGLE_LPhosphineSubM:0_SubRM:1, 

> <GraphJson>
{
  "graphId": 11656,
  "gVertices": [
    {
      "lstAPs": [
        {
          "id": 311509,
          "atomPositionNumber": 0,
          "atomPositionNumberInMol": 0,
          "apClass": {
            "rule": "Xlig",
            "subClass": 0,
            "bndTyp": "SINGLE"
          },
          "dirVec": {
            "x": -2.3339,
            "y": -0.0087,
            "z": 0.8172
          }
        },
        {
          "id": 311510,
          "atomPositionNumber": 0,
          "atomPositionNumberInMol": 0,
          "apClass": {
            "rule": "Xlig",
            "subClass": 0,
            "bndTyp": "SINGLE"
          },
          "dirVec": {
            "x": 2.336,
            "y": -5.0E-4,
            "z": 0.829
          }
        },
        {
          "id": 311511,
          "atomPositionNumber": 0,
          "atomPositionNumberInMol": 0,
          "apClass": {
            "rule": "scaff",
            "subClass": 0,
            "bndTyp": "SINGLE"
          },
          "dirVec": {
            "x": -0.0095,
            "y": 0.0046,
            "z": -1.7113
          }
        }
      ],
      "lstSymAPs": [
        {
          "symIds": [
            0,
            1
          ]
        }
      ],
      "mol": {
        "atoms": [
          {
            "elSymbol": "Pt",
            "p3d": {
              "x": -0.0098,
              "y": 0.0049,
              "z": 0.6289
            }
          },
          {
            "elSymbol": "C",
            "p3d": {
              "x": -6.0E-4,
              "y": 0.0016,
              "z": 2.5609
            }
          },
          {
            "elSymbol": "O",
            "p3d": {
              "x": 0.0025,
              "y": -0.0041,
              "z": 3.6974
            }
          },
          {
            "elSymbol": "Du",
            "p3d": {
              "x": -0.007,
              "y": 1.0013,
              "z": 0.6372
            }
          },
          {
            "elSymbol": "Du",
            "p3d": {
              "x": -0.0014,
              "y": 0.9902,
              "z": 2.5698
            }
          }
        ],
        "bonds": [
          {
            "atomIds": [
              1,
              2
            ],
            "bo": "TRIPLE"
          },
          {
            "atomIds": [
              0,
              1
            ],
            "bo": "SINGLE"
          },
          {
            "atomIds": [
              3,
              0
            ],
            "bo": "SINGLE"
          },
          {
            "atomIds": [
              4,
              1
            ],
            "bo": "SINGLE"
          }
        ]
      },
      "vertexId": 72,
      "buildingBlockId": 0,
      "buildingBlockType": "SCAFFOLD",
      "isRCV": false,
      "properties": {
        "ATTACHMENT_POINTS": "1#Xlig:0:SINGLE:-2.3339%-0.0087%0.8172,Xlig:0:SINGLE:2.3360%-0.0005%0.8290,scaff:0:SINGLE:-0.0095%0.0046%-1.7113 "
      },
      "uniquefyingPropertyKeys": [],
      "allowedMutationTypes": [
        "DELETE",
        "EXTEND",
        "CHANGEBRANCH",
        "CHANGELINK",
        "ADDLINK",
        "DELETELINK",
        "DELETECHAIN"
      ],
      "vertexType": "MolecularFragment"
    },
    {
      "lstAPs": [
        {
          "id": 311512,
          "atomPositionNumber": 0,
          "atomPositionNumberInMol": 5,
          "apClass": {
            "rule": "Xlig",
            "subClass": 1,
            "bndTyp": "SINGLE"
          },
          "dirVec": {
            "x": 0.0192,
            "y": -0.0048,
            "z": -0.5645
          }
        }
      ],
      "lstSymAPs": [],
      "mol": {
        "atoms": [
          {
            "elSymbol": "C",
            "p3d": {
              "x": -1.967,
              "y": -0.0075,
              "z": -0.4937
            }
          },
          {
            "elSymbol": "N",
            "p3d": {
              "x": -3.1263,
              "y": -0.0054,
              "z": -0.4354
            }
          },
          {
            "elSymbol": "Du",
            "p3d": {
              "x": -1.9744,
              "y": 0.9926,
              "z": -0.5036
            }
          }
        ],
        "bonds": [
          {
            "atomIds": [
              0,
              1
            ],
            "bo": "TRIPLE"
          },
          {
            "atomIds": [
              2,
              0
            ],
            "bo": "SINGLE"
          }
        ]
      },
      "vertexId": 81,
      "buildingBlockId": 65,
      "buildingBlockType": "FRAGMENT",
      "isRCV": false,
      "properties": {
        "ATTACHMENT_POINTS": "1#Xlig:1:SINGLE:0.0192%-0.0048%-0.5645 "
      },
      "uniquefyingPropertyKeys": [],
      "allowedMutationTypes": [
        "DELETE",
        "EXTEND",
        "CHANGEBRANCH",
        "CHANGELINK",
        "ADDLINK",
        "DELETELINK",
        "DELETECHAIN"
      ],
      "vertexType": "MolecularFragment"
    },
    {
      "lstAPs": [
        {
          "id": 311513,
          "atomPositionNumber": 0,
          "atomPositionNumberInMol": 8,
          "apClass": {
            "rule": "LPhosphineSubM",
            "subClass": 0,
            "bndTyp": "SINGLE"
          },
          "dirVec": {
            "x": 2.723,
            "y": 1.7542,
            "z": 13.2677
          }
        },
        {
          "id": 311514,
          "atomPositionNumber": 0,
          "atomPositionNumberInMol": 8,
          "apClass": {
            "rule": "MPhosphine",
            "subClass": 1,
            "bndTyp": "SINGLE"
          },
          "dirVec": {
            "x": 4.8307,
            "y": -0.2673,
            "z": 11.5812
          }
        }
      ],
      "lstSymAPs": [],
      "mol": {
        "atoms": [
          {
            "elSymbol": "P",
            "p3d": {
              "x": 3.2259,
              "y": 1.2767,
              "z": 11.5745
            }
          },
          {
            "elSymbol": "C",
            "p3d": {
              "x": 1.6598,
              "y": 0.7995,
              "z": 10.6875
            }
          },
          {
            "elSymbol": "H",
            "p3d": {
              "x": 1.6974,
              "y": -0.248,
              "z": 10.3885
            }
          },
          {
            "elSymbol": "H",
            "p3d": {
              "x": 0.7981,
              "y": 0.9391,
              "z": 11.3443
            }
          },
          {
            "elSymbol": "C",
            "p3d": {
              "x": 1.5701,
              "y": 1.7203,
              "z": 9.4939
            }
          },
          {
            "elSymbol": "H",
            "p3d": {
              "x": 0.5288,
              "y": 1.8359,
              "z": 9.1795
            }
          },
          {
            "elSymbol": "H",
            "p3d": {
              "x": 2.1382,
              "y": 1.3052,
              "z": 8.655
            }
          },
          {
            "elSymbol": "C",
            "p3d": {
              "x": 2.1438,
              "y": 3.0759,
              "z": 9.8936
            }
          },
          {
            "elSymbol": "H",
            "p3d": {
              "x": 1.4578,
              "y": 3.5682,
              "z": 10.5909
            }
          },
          {
            "elSymbol": "H",
            "p3d": {
              "x": 2.2815,
              "y": 3.6992,
              "z": 9.0137
            }
          },
          {
            "elSymbol": "C",
            "p3d": {
              "x": 3.4838,
              "y": 2.7861,
              "z": 10.5731
            }
          },
          {
            "elSymbol": "H",
            "p3d": {
              "x": 3.7886,
              "y": 3.6232,
              "z": 11.214
            }
          },
          {
            "elSymbol": "H",
            "p3d": {
              "x": 4.2729,
              "y": 2.6329,
              "z": 9.835
            }
          }
        ],
        "bonds": [
          {
            "atomIds": [
              1,
              0
            ],
            "bo": "SINGLE"
          },
          {
            "atomIds": [
              2,
              1
            ],
            "bo": "SINGLE"
          },
          {
            "atomIds": [
              3,
              1
            ],
            "bo": "SINGLE"
          },
          {
            "atomIds": [
              4,
              1
            ],
            "bo": "SINGLE"
          },
          {
            "atomIds": [
              5,
              4
            ],
            "bo": "SINGLE"
          },
          {
            "atomIds": [
              6,
              4
            ],
            "bo": "SINGLE"
          },
          {
            "atomIds": [
              7,
              4
            ],
            "bo": "SINGLE"
          },
          {
            "atomIds": [
              7,
              10
            ],
            "bo": "SINGLE"
          },
          {
            "atomIds": [
              8,
              7
            ],
            "bo": "SINGLE"
          },
          {
            "atomIds": [
              9,
              7
            ],
            "bo": "SINGLE"
          },
          {
            "atomIds": [
              10,
              0
            ],
            "bo": "SINGLE"
          },
          {
            "atomIds": [
              11,
              10
            ],
            "bo": "SINGLE"
          },
          {
            "atomIds": [
              12,
              10
            ],
            "bo": "SINGLE"
          }
        ]
      },
      "vertexId": 104,
      "buildingBlockId": 41,
      "buildingBlockType": "FRAGMENT",
      "isRCV": false,
      "properties": {
        "ATTACHMENT_POINTS": "1#LPhosphineSubM:0:SINGLE:2.7230%1.7542%13.2677,MPhosphine:1:SINGLE:4.8307%-0.2673%11.5812 "
      },
      "uniquefyingPropertyKeys": [],
      "allowedMutationTypes": [
        "DELETE",
        "EXTEND",
        "CHANGEBRANCH",
        "CHANGELINK",
        "ADDLINK",
        "DELETELINK",
        "DELETECHAIN"
      ],
      "vertexType": "MolecularFragment"
    },
    {
      "lstAPs": [
        {
          "id": 311515,
          "atomPositionNumber": 0,
          "atomPositionNumberInMol": 31,
          "apClass": {
            "rule": "Xlig",
            "subClass": 1,
            "bndTyp": "SINGLE"
          },
          "dirVec": {
            "x": -0.0053,
            "y": -0.0027,
            "z": 0.63
          }
        }
      ],
      "lstSymAPs": [],
      "mol": {
        "atoms": [
          {
            "elSymbol": "Cl",
            "p3d": {
              "x": 2.3243,
              "y": -0.0063,
              "z": 0.8189
            }
          }
        ],
        "bonds": []
      },
      "vertexId": 88,
      "buildingBlockId": 66,
      "buildingBlockType": "FRAGMENT",
      "isRCV": false,
      "properties": {
        "ATTACHMENT_POINTS": "1#Xlig:1:SINGLE:-0.0053%-0.0027%0.6300 "
      },
      "uniquefyingPropertyKeys": [],
      "allowedMutationTypes": [
        "DELETE",
        "EXTEND",
        "CHANGEBRANCH",
        "CHANGELINK",
        "ADDLINK",
        "DELETELINK",
        "DELETECHAIN"
      ],
      "vertexType": "MolecularFragment"
    },
    {
      "lstAPs": [
        {
          "id": 311540,
          "atomPositionNumber": 1,
          "atomPositionNumberInMol": 22,
          "apClass": {
            "rule": "SubRM",
            "subClass": 1,
            "bndTyp": "SINGLE"
          },
          "dirVec": {
            "x": 0.2868,
            "y": 0.385,
            "z": -0.643
          }
        }
      ],
      "lstSymAPs": [],
      "mol": {
        "atoms": [
          {
            "elSymbol": "C",
            "p3d": {
              "x": 1.141,
              "y": 1.0262,
              "z": 1.6347
            }
          },
          {
            "elSymbol": "C",
            "p3d": {
              "x": 0.3967,
              "y": -0.0479,
              "z": 0.8227
            }
          },
          {
            "elSymbol": "C",
            "p3d": {
              "x": 1.1459,
              "y": -1.371,
              "z": 0.9201
            }
          },
          {
            "elSymbol": "H",
            "p3d": {
              "x": 2.1461,
              "y": -1.2583,
              "z": 0.4976
            }
          },
          {
            "elSymbol": "H",
            "p3d": {
              "x": 0.6013,
              "y": -2.1408,
              "z": 0.3461
            }
          },
          {
            "elSymbol": "H",
            "p3d": {
              "x": 1.2113,
              "y": -1.6946,
              "z": 1.9559
            }
          },
          {
            "elSymbol": "H",
            "p3d": {
              "x": 2.1541,
              "y": 1.1435,
              "z": 1.2119
            }
          },
          {
            "elSymbol": "H",
            "p3d": {
              "x": 0.6143,
              "y": 1.976,
              "z": 1.5626
            }
          },
          {
            "elSymbol": "H",
            "p3d": {
              "x": 1.2058,
              "y": 0.7088,
              "z": 2.6868
            }
          },
          {
            "elSymbol": "H",
            "p3d": {
              "x": -0.6215,
              "y": -0.1789,
              "z": 1.2377
            }
          }
        ],
        "bonds": [
          {
            "atomIds": [
              0,
              1
            ],
            "bo": "SINGLE"
          },
          {
            "atomIds": [
              1,
              2
            ],
            "bo": "SINGLE"
          },
          {
            "atomIds": [
              2,
              3
            ],
            "bo": "SINGLE"
          },
          {
            "atomIds": [
              2,
              4
            ],
            "bo": "SINGLE"
          },
          {
            "atomIds": [
              2,
              5
            ],
            "bo": "SINGLE"
          },
          {
            "atomIds": [
              0,
              6
            ],
            "bo": "SINGLE"
          },
          {
            "atomIds": [
              0,
              7
            ],
            "bo": "SINGLE"
          },
          {
            "atomIds": [
              0,
              8
            ],
            "bo": "SINGLE"
          },
          {
            "atomIds": [
              1,
              9
            ],
            "bo": "SINGLE"
          }
        ]
      },
      "vertexId": 238590,
      "buildingBlockId": 32,
      "buildingBlockType": "FRAGMENT",
      "isRCV": false,
      "properties": {
        "ATTACHMENT_POINTS": "2#SubRM:1:SINGLE:0.2868%0.3850%-0.6430 "
      },
      "uniquefyingPropertyKeys": [],
      "allowedMutationTypes": [
        "DELETE",
        "EXTEND",
        "CHANGEBRANCH",
        "CHANGELINK",
        "ADDLINK",
        "DELETELINK",
        "DELETECHAIN"
      ],
      "vertexType": "MolecularFragment"
    }
  ],
  "gEdges": [
    {
      "srcAPID": 311509,
      "trgAPID": 311512,
      "bondType": "SINGLE"
    },
    {
      "srcAPID": 311511,
      "trgAPID": 311514,
      "bondType": "SINGLE"
    },
    {
      "srcAPID": 311510,
      "trgAPID": 311515,
      "bondType": "SINGLE"
    },
    {
      "srcAPID": 311513,
      "trgAPID": 311540,
      "bondType": "SINGLE"
    }
  ],
  "gRings": [],
  "symVertices": []
}

> <SMILES>
[Pt](C#O)(C#N)([P]1(C([H])([H])C([H])([H])C(C1([H])[H])([H])[H])C(C([H])([H])[H])(C([H])([H])[H])[H])Cl

$$$$
