M00020662
  CDK     04222216043D

 51 54  0  0  0  0  0  0  0  0999 V2000
   -2.8195    0.7882   -0.0927 Pt  0  0  0  0  0  0  0  0  0  0  0  0
   -4.7251    1.3123   -0.0754 C   0  0  0  0  0  0  0  0  0  0  0  0
   -5.8044    1.6762   -0.0609 O   0  0  0  0  0  0  0  0  0  0  0  0
   -2.9129    3.0609   -0.6195 S   0  0  0  0  0  0  0  0  0  0  0  0
   -2.2323    3.7059    0.9326 C   0  0  0  0  0  0  0  0  0  0  0  0
   -1.1337    3.6688    0.9114 H   0  0  0  0  0  0  0  0  0  0  0  0
   -2.5885    3.1341    1.7954 H   0  0  0  0  0  0  0  0  0  0  0  0
   -2.5421    4.7512    1.0504 H   0  0  0  0  0  0  0  0  0  0  0  0
    0.2713   -0.7988    2.0074 C   0  0  0  0  0  0  0  0  0  0  0  0
   -0.5035   -1.6326    2.8179 C   0  0  0  0  0  0  0  0  0  0  0  0
   -1.2799   -2.2653    2.3748 H   0  0  0  0  0  0  0  0  0  0  0  0
   -0.2477   -1.6450    4.1907 C   0  0  0  0  0  0  0  0  0  0  0  0
   -0.8399   -2.2882    4.8437 H   0  0  0  0  0  0  0  0  0  0  0  0
    0.7603   -0.8350    4.7260 C   0  0  0  0  0  0  0  0  0  0  0  0
    0.9470   -0.8426    5.8001 H   0  0  0  0  0  0  0  0  0  0  0  0
    1.5311   -0.0163    3.8963 C   0  0  0  0  0  0  0  0  0  0  0  0
    2.3110    0.6126    4.3281 H   0  0  0  0  0  0  0  0  0  0  0  0
    1.3091    0.0131    2.5097 C   0  0  0  0  0  0  0  0  0  0  0  0
    2.1319    0.8536    1.6266 C   0  0  0  0  0  0  0  0  0  0  0  0
    3.5293    0.9017    1.7630 C   0  0  0  0  0  0  0  0  0  0  0  0
    4.0141    0.2969    2.5310 H   0  0  0  0  0  0  0  0  0  0  0  0
    4.3020    1.7067    0.9219 C   0  0  0  0  0  0  0  0  0  0  0  0
    5.3852    1.7299    1.0439 H   0  0  0  0  0  0  0  0  0  0  0  0
    3.6993    2.4815   -0.0760 C   0  0  0  0  0  0  0  0  0  0  0  0
    4.3106    3.1085   -0.7262 H   0  0  0  0  0  0  0  0  0  0  0  0
    2.3136    2.4515   -0.2458 C   0  0  0  0  0  0  0  0  0  0  0  0
    1.8163    3.0425   -1.0167 H   0  0  0  0  0  0  0  0  0  0  0  0
    1.5606    1.6402    0.6070 C   0  0  0  0  0  0  0  0  0  0  0  0
    0.0699   -0.9155    0.6230 O   0  0  0  0  0  0  0  0  0  0  0  0
    0.1620    1.7404    0.4857 O   0  0  0  0  0  0  0  0  0  0  0  0
   -0.6190    0.4070   -0.1389 P   0  0  0  0  0  0  0  0  0  0  0  0
    0.0779    0.2635   -1.6411 O   0  0  0  0  0  0  0  0  0  0  0  0
   -0.2177   -0.9441   -2.3204 C   0  0  0  0  0  0  0  0  0  0  0  0
   -0.6009   -3.2058   -3.8583 C   0  0  0  0  0  0  0  0  0  0  0  0
    0.7935   -1.9268   -2.3338 C   0  0  0  0  0  0  0  0  0  0  0  0
   -1.4072   -1.0519   -3.0638 C   0  0  0  0  0  0  0  0  0  0  0  0
   -1.5821   -2.2128   -3.8337 C   0  0  0  0  0  0  0  0  0  0  0  0
    0.5777   -3.0667   -3.1202 C   0  0  0  0  0  0  0  0  0  0  0  0
   -2.4951   -2.3389   -4.4145 H   0  0  0  0  0  0  0  0  0  0  0  0
    1.3329   -3.8506   -3.1517 H   0  0  0  0  0  0  0  0  0  0  0  0
   -0.7565   -4.1020   -4.4602 H   0  0  0  0  0  0  0  0  0  0  0  0
    2.0340   -1.7585   -1.5289 C   0  0  0  0  0  0  0  0  0  0  0  0
    2.4324   -0.7350   -1.6067 H   0  0  0  0  0  0  0  0  0  0  0  0
    2.8334   -2.4472   -1.8281 H   0  0  0  0  0  0  0  0  0  0  0  0
    1.8272   -1.9410   -0.4577 H   0  0  0  0  0  0  0  0  0  0  0  0
   -2.4600    0.0033   -3.0341 C   0  0  0  0  0  0  0  0  0  0  0  0
   -2.0502    1.0162   -2.8726 H   0  0  0  0  0  0  0  0  0  0  0  0
   -3.2161   -0.2080   -2.2496 H   0  0  0  0  0  0  0  0  0  0  0  0
   -3.0113    0.0556   -3.9862 H   0  0  0  0  0  0  0  0  0  0  0  0
   -3.0504   -1.1452    0.3704 C   0  0  0  0  0  0  0  0  0  0  0  0
   -3.2379   -2.2485    0.6568 N   0  0  0  0  0  0  0  0  0  0  0  0
  2  3  3  0  0  0  0
  1  2  1  0  0  0  0
  5  6  1  0  0  0  0
  5  7  1  0  0  0  0
  5  8  1  0  0  0  0
  4  5  1  0  0  0  0
  1  4  1  0  0  0  0
  9 10  2  0  0  0  0
 10 11  1  0  0  0  0
 12 10  1  0  0  0  0
 13 12  1  0  0  0  0
 14 12  2  0  0  0  0
 15 14  1  0  0  0  0
 16 14  1  0  0  0  0
 16 18  2  0  0  0  0
 17 16  1  0  0  0  0
 18  9  1  0  0  0  0
 19 18  1  0  0  0  0
 20 19  2  0  0  0  0
 21 20  1  0  0  0  0
 22 20  1  0  0  0  0
 23 22  1  0  0  0  0
 24 22  2  0  0  0  0
 25 24  1  0  0  0  0
 26 24  1  0  0  0  0
 26 28  2  0  0  0  0
 27 26  1  0  0  0  0
 28 19  1  0  0  0  0
 29  9  1  0  0  0  0
 29 31  1  0  0  0  0
 30 28  1  0  0  0  0
 30 31  1  0  0  0  0
  1 31  1  0  0  0  0
 31 32  1  0  0  0  0
 33 36  1  0  0  0  0
 36 37  2  0  0  0  0
 34 37  1  0  0  0  0
 34 38  2  0  0  0  0
 35 38  1  0  0  0  0
 33 35  2  0  0  0  0
 37 39  1  0  0  0  0
 38 40  1  0  0  0  0
 34 41  1  0  0  0  0
 42 43  1  0  0  0  0
 42 44  1  0  0  0  0
 42 45  1  0  0  0  0
 35 42  1  0  0  0  0
 46 47  1  0  0  0  0
 46 48  1  0  0  0  0
 46 49  1  0  0  0  0
 36 46  1  0  0  0  0
 32 33  1  0  0  0  0
 50 51  3  0  0  0  0
  1 50  1  0  0  0  0
M  END
> <PM6_ENERGY>
-292.063

> <UID>
NAUNSZNJJXVBKQ-DTHJCSRDNA-M

> <FITNESS>
1.13909

> <GCODE>
22023

> <GraphENC>
22023 72_1_0,79_64_1,110_49_1,87_66_1,384695_52_1,528909_38_1, 72_0_79_0_SINGLE_Xlig:0_Xlig:1,72_2_110_1_SINGLE_scaff:0_MPhosphite:1,72_1_87_0_SINGLE_Xlig:0_Xlig:1,110_0_384695_0_SINGLE_LPhosphiteSubO:0_LPhosphiteSubO:1,384695_1_528909_0_SINGLE_OPhosphiteSub:1_SubArL:1, 

> <GraphJson>
{
  "graphId": 22023,
  "gVertices": [
    {
      "lstAPs": [
        {
          "id": 603408,
          "atomPositionNumber": 0,
          "atomPositionNumberInMol": 0,
          "apClass": {
            "rule": "Xlig",
            "subClass": 0,
            "bndTyp": "SINGLE"
          },
          "dirVec": {
            "x": -2.3339,
            "y": -0.0087,
            "z": 0.8172
          }
        },
        {
          "id": 603409,
          "atomPositionNumber": 0,
          "atomPositionNumberInMol": 0,
          "apClass": {
            "rule": "Xlig",
            "subClass": 0,
            "bndTyp": "SINGLE"
          },
          "dirVec": {
            "x": 2.336,
            "y": -5.0E-4,
            "z": 0.829
          }
        },
        {
          "id": 603410,
          "atomPositionNumber": 0,
          "atomPositionNumberInMol": 0,
          "apClass": {
            "rule": "scaff",
            "subClass": 0,
            "bndTyp": "SINGLE"
          },
          "dirVec": {
            "x": -0.0095,
            "y": 0.0046,
            "z": -1.7113
          }
        }
      ],
      "lstSymAPs": [
        {
          "symIds": [
            0,
            1
          ]
        }
      ],
      "mol": {
        "atoms": [
          {
            "elSymbol": "Pt",
            "p3d": {
              "x": -0.0098,
              "y": 0.0049,
              "z": 0.6289
            }
          },
          {
            "elSymbol": "C",
            "p3d": {
              "x": -6.0E-4,
              "y": 0.0016,
              "z": 2.5609
            }
          },
          {
            "elSymbol": "O",
            "p3d": {
              "x": 0.0025,
              "y": -0.0041,
              "z": 3.6974
            }
          },
          {
            "elSymbol": "Du",
            "p3d": {
              "x": -0.007,
              "y": 1.0013,
              "z": 0.6372
            }
          },
          {
            "elSymbol": "Du",
            "p3d": {
              "x": -0.0014,
              "y": 0.9902,
              "z": 2.5698
            }
          }
        ],
        "bonds": [
          {
            "atomIds": [
              1,
              2
            ],
            "bo": "TRIPLE"
          },
          {
            "atomIds": [
              0,
              1
            ],
            "bo": "SINGLE"
          },
          {
            "atomIds": [
              3,
              0
            ],
            "bo": "SINGLE"
          },
          {
            "atomIds": [
              4,
              1
            ],
            "bo": "SINGLE"
          }
        ]
      },
      "vertexId": 72,
      "buildingBlockId": 0,
      "buildingBlockType": "SCAFFOLD",
      "isRCV": false,
      "properties": {
        "ATTACHMENT_POINTS": "1#Xlig:0:SINGLE:-2.3339%-0.0087%0.8172,Xlig:0:SINGLE:2.3360%-0.0005%0.8290,scaff:0:SINGLE:-0.0095%0.0046%-1.7113 "
      },
      "uniquefyingPropertyKeys": [],
      "allowedMutationTypes": [
        "DELETE",
        "EXTEND",
        "CHANGEBRANCH",
        "CHANGELINK",
        "ADDLINK",
        "DELETELINK",
        "DELETECHAIN"
      ],
      "vertexType": "MolecularFragment"
    },
    {
      "lstAPs": [
        {
          "id": 603411,
          "atomPositionNumber": 0,
          "atomPositionNumberInMol": 5,
          "apClass": {
            "rule": "Xlig",
            "subClass": 1,
            "bndTyp": "SINGLE"
          },
          "dirVec": {
            "x": -0.102,
            "y": 0.0185,
            "z": -1.0265
          }
        }
      ],
      "lstSymAPs": [],
      "mol": {
        "atoms": [
          {
            "elSymbol": "S",
            "p3d": {
              "x": -0.3267,
              "y": 2.3403,
              "z": -1.0022
            }
          },
          {
            "elSymbol": "C",
            "p3d": {
              "x": -0.626,
              "y": 2.4866,
              "z": 0.7805
            }
          },
          {
            "elSymbol": "H",
            "p3d": {
              "x": 0.1766,
              "y": 3.089,
              "z": 1.2414
            }
          },
          {
            "elSymbol": "H",
            "p3d": {
              "x": -0.651,
              "y": 1.5065,
              "z": 1.2643
            }
          },
          {
            "elSymbol": "H",
            "p3d": {
              "x": -1.5658,
              "y": 2.981,
              "z": 0.9515
            }
          }
        ],
        "bonds": [
          {
            "atomIds": [
              1,
              2
            ],
            "bo": "SINGLE"
          },
          {
            "atomIds": [
              1,
              3
            ],
            "bo": "SINGLE"
          },
          {
            "atomIds": [
              1,
              4
            ],
            "bo": "SINGLE"
          },
          {
            "atomIds": [
              0,
              1
            ],
            "bo": "SINGLE"
          }
        ]
      },
      "vertexId": 79,
      "buildingBlockId": 63,
      "buildingBlockType": "FRAGMENT",
      "isRCV": false,
      "properties": {
        "ATTACHMENT_POINTS": "1#Xlig:1:SINGLE:-0.1020%0.0185%-1.0265 "
      },
      "uniquefyingPropertyKeys": [],
      "allowedMutationTypes": [
        "DELETE",
        "EXTEND",
        "CHANGEBRANCH",
        "CHANGELINK",
        "ADDLINK",
        "DELETELINK",
        "DELETECHAIN"
      ],
      "vertexType": "MolecularFragment"
    },
    {
      "lstAPs": [
        {
          "id": 603412,
          "atomPositionNumber": 22,
          "atomPositionNumberInMol": 32,
          "apClass": {
            "rule": "LPhosphiteSubO",
            "subClass": 0,
            "bndTyp": "SINGLE"
          },
          "dirVec": {
            "x": 6.6821,
            "y": 5.3677,
            "z": 17.7965
          }
        },
        {
          "id": 603413,
          "atomPositionNumber": 22,
          "atomPositionNumberInMol": 32,
          "apClass": {
            "rule": "MPhosphite",
            "subClass": 1,
            "bndTyp": "SINGLE"
          },
          "dirVec": {
            "x": 5.2115,
            "y": 8.219,
            "z": 18.2686
          }
        }
      ],
      "lstSymAPs": [],
      "mol": {
        "atoms": [
          {
            "elSymbol": "C",
            "p3d": {
              "x": 8.868,
              "y": 7.7904,
              "z": 19.5309
            }
          },
          {
            "elSymbol": "C",
            "p3d": {
              "x": 8.6758,
              "y": 8.541,
              "z": 20.6816
            }
          },
          {
            "elSymbol": "H",
            "p3d": {
              "x": 7.7959,
              "y": 8.3781,
              "z": 21.2982
            }
          },
          {
            "elSymbol": "C",
            "p3d": {
              "x": 9.6226,
              "y": 9.508,
              "z": 21.0124
            }
          },
          {
            "elSymbol": "H",
            "p3d": {
              "x": 9.4801,
              "y": 10.1014,
              "z": 21.9119
            }
          },
          {
            "elSymbol": "C",
            "p3d": {
              "x": 10.6714,
              "y": 9.7257,
              "z": 20.2615
            }
          },
          {
            "elSymbol": "H",
            "p3d": {
              "x": 11.369,
              "y": 10.5105,
              "z": 20.5337
            }
          },
          {
            "elSymbol": "C",
            "p3d": {
              "x": 10.8922,
              "y": 8.9513,
              "z": 19.0933
            }
          },
          {
            "elSymbol": "H",
            "p3d": {
              "x": 11.7788,
              "y": 9.1364,
              "z": 18.5012
            }
          },
          {
            "elSymbol": "C",
            "p3d": {
              "x": 9.9896,
              "y": 7.9623,
              "z": 18.7237
            }
          },
          {
            "elSymbol": "C",
            "p3d": {
              "x": 10.1857,
              "y": 7.1333,
              "z": 17.5283
            }
          },
          {
            "elSymbol": "C",
            "p3d": {
              "x": 11.42,
              "y": 6.6249,
              "z": 17.1632
            }
          },
          {
            "elSymbol": "H",
            "p3d": {
              "x": 12.2741,
              "y": 6.8237,
              "z": 17.826
            }
          },
          {
            "elSymbol": "C",
            "p3d": {
              "x": 11.6652,
              "y": 5.8687,
              "z": 16.0429
            }
          },
          {
            "elSymbol": "H",
            "p3d": {
              "x": 12.6727,
              "y": 5.5494,
              "z": 15.7739
            }
          },
          {
            "elSymbol": "C",
            "p3d": {
              "x": 10.5758,
              "y": 5.5431,
              "z": 15.2313
            }
          },
          {
            "elSymbol": "H",
            "p3d": {
              "x": 10.7121,
              "y": 4.8845,
              "z": 14.3736
            }
          },
          {
            "elSymbol": "C",
            "p3d": {
              "x": 9.3214,
              "y": 6.0404,
              "z": 15.5538
            }
          },
          {
            "elSymbol": "H",
            "p3d": {
              "x": 8.4837,
              "y": 5.8344,
              "z": 14.9027
            }
          },
          {
            "elSymbol": "C",
            "p3d": {
              "x": 9.1581,
              "y": 6.8298,
              "z": 16.6773
            }
          },
          {
            "elSymbol": "O",
            "p3d": {
              "x": 7.9608,
              "y": 6.7634,
              "z": 19.2501
            }
          },
          {
            "elSymbol": "O",
            "p3d": {
              "x": 7.8839,
              "y": 7.3746,
              "z": 16.893
            }
          },
          {
            "elSymbol": "P",
            "p3d": {
              "x": 6.9287,
              "y": 6.8843,
              "z": 18.0447
            }
          }
        ],
        "bonds": [
          {
            "atomIds": [
              0,
              1
            ],
            "bo": "DOUBLE"
          },
          {
            "atomIds": [
              1,
              2
            ],
            "bo": "SINGLE"
          },
          {
            "atomIds": [
              3,
              1
            ],
            "bo": "SINGLE"
          },
          {
            "atomIds": [
              4,
              3
            ],
            "bo": "SINGLE"
          },
          {
            "atomIds": [
              5,
              3
            ],
            "bo": "DOUBLE"
          },
          {
            "atomIds": [
              6,
              5
            ],
            "bo": "SINGLE"
          },
          {
            "atomIds": [
              7,
              5
            ],
            "bo": "SINGLE"
          },
          {
            "atomIds": [
              7,
              9
            ],
            "bo": "DOUBLE"
          },
          {
            "atomIds": [
              8,
              7
            ],
            "bo": "SINGLE"
          },
          {
            "atomIds": [
              9,
              0
            ],
            "bo": "SINGLE"
          },
          {
            "atomIds": [
              10,
              9
            ],
            "bo": "SINGLE"
          },
          {
            "atomIds": [
              11,
              10
            ],
            "bo": "DOUBLE"
          },
          {
            "atomIds": [
              12,
              11
            ],
            "bo": "SINGLE"
          },
          {
            "atomIds": [
              13,
              11
            ],
            "bo": "SINGLE"
          },
          {
            "atomIds": [
              14,
              13
            ],
            "bo": "SINGLE"
          },
          {
            "atomIds": [
              15,
              13
            ],
            "bo": "DOUBLE"
          },
          {
            "atomIds": [
              16,
              15
            ],
            "bo": "SINGLE"
          },
          {
            "atomIds": [
              17,
              15
            ],
            "bo": "SINGLE"
          },
          {
            "atomIds": [
              17,
              19
            ],
            "bo": "DOUBLE"
          },
          {
            "atomIds": [
              18,
              17
            ],
            "bo": "SINGLE"
          },
          {
            "atomIds": [
              19,
              10
            ],
            "bo": "SINGLE"
          },
          {
            "atomIds": [
              20,
              0
            ],
            "bo": "SINGLE"
          },
          {
            "atomIds": [
              20,
              22
            ],
            "bo": "SINGLE"
          },
          {
            "atomIds": [
              21,
              19
            ],
            "bo": "SINGLE"
          },
          {
            "atomIds": [
              21,
              22
            ],
            "bo": "SINGLE"
          }
        ]
      },
      "vertexId": 110,
      "buildingBlockId": 48,
      "buildingBlockType": "FRAGMENT",
      "isRCV": false,
      "properties": {
        "ATTACHMENT_POINTS": "23#LPhosphiteSubO:0:SINGLE:6.6821%5.3677%17.7965,MPhosphite:1:SINGLE:5.2115%8.2190%18.2686 "
      },
      "uniquefyingPropertyKeys": [],
      "allowedMutationTypes": [
        "DELETE",
        "EXTEND",
        "CHANGEBRANCH",
        "CHANGELINK",
        "ADDLINK",
        "DELETELINK",
        "DELETECHAIN"
      ],
      "vertexType": "MolecularFragment"
    },
    {
      "lstAPs": [
        {
          "id": 603414,
          "atomPositionNumber": 0,
          "atomPositionNumberInMol": 51,
          "apClass": {
            "rule": "Xlig",
            "subClass": 1,
            "bndTyp": "SINGLE"
          },
          "dirVec": {
            "x": 0.0192,
            "y": -0.0048,
            "z": -0.5645
          }
        }
      ],
      "lstSymAPs": [],
      "mol": {
        "atoms": [
          {
            "elSymbol": "C",
            "p3d": {
              "x": -1.967,
              "y": -0.0075,
              "z": -0.4937
            }
          },
          {
            "elSymbol": "N",
            "p3d": {
              "x": -3.1263,
              "y": -0.0054,
              "z": -0.4354
            }
          },
          {
            "elSymbol": "Du",
            "p3d": {
              "x": -1.9744,
              "y": 0.9926,
              "z": -0.5036
            }
          }
        ],
        "bonds": [
          {
            "atomIds": [
              0,
              1
            ],
            "bo": "TRIPLE"
          },
          {
            "atomIds": [
              2,
              0
            ],
            "bo": "SINGLE"
          }
        ]
      },
      "vertexId": 87,
      "buildingBlockId": 65,
      "buildingBlockType": "FRAGMENT",
      "isRCV": false,
      "properties": {
        "ATTACHMENT_POINTS": "1#Xlig:1:SINGLE:0.0192%-0.0048%-0.5645 "
      },
      "uniquefyingPropertyKeys": [],
      "allowedMutationTypes": [
        "DELETE",
        "EXTEND",
        "CHANGEBRANCH",
        "CHANGELINK",
        "ADDLINK",
        "DELETELINK",
        "DELETECHAIN"
      ],
      "vertexType": "MolecularFragment"
    },
    {
      "lstAPs": [
        {
          "id": 603415,
          "atomPositionNumber": 0,
          "atomPositionNumberInMol": 33,
          "apClass": {
            "rule": "LPhosphiteSubO",
            "subClass": 1,
            "bndTyp": "SINGLE"
          },
          "dirVec": {
            "x": 0.7035,
            "y": 2.9119,
            "z": 2.8175
          }
        },
        {
          "id": 603416,
          "atomPositionNumber": 0,
          "atomPositionNumberInMol": 33,
          "apClass": {
            "rule": "OPhosphiteSub",
            "subClass": 1,
            "bndTyp": "SINGLE"
          },
          "dirVec": {
            "x": 0.0564,
            "y": 5.2897,
            "z": 1.9394
          }
        }
      ],
      "lstSymAPs": [],
      "mol": {
        "atoms": [
          {
            "elSymbol": "O",
            "p3d": {
              "x": -0.1418,
              "y": 4.2412,
              "z": 2.9314
            }
          }
        ],
        "bonds": []
      },
      "vertexId": 384695,
      "buildingBlockId": 51,
      "buildingBlockType": "FRAGMENT",
      "isRCV": false,
      "properties": {
        "ATTACHMENT_POINTS": "1#LPhosphiteSubO:1:SINGLE:0.7035%2.9119%2.8175,OPhosphiteSub:1:SINGLE:0.0564%5.2897%1.9394 "
      },
      "uniquefyingPropertyKeys": [],
      "allowedMutationTypes": [
        "DELETE",
        "EXTEND",
        "CHANGEBRANCH",
        "CHANGELINK",
        "ADDLINK",
        "DELETELINK",
        "DELETECHAIN"
      ],
      "vertexType": "MolecularFragment"
    },
    {
      "lstAPs": [
        {
          "id": 603447,
          "atomPositionNumber": 0,
          "atomPositionNumberInMol": 34,
          "apClass": {
            "rule": "SubArL",
            "subClass": 1,
            "bndTyp": "SINGLE"
          },
          "dirVec": {
            "x": 0.2957,
            "y": 0.3816,
            "z": -0.6358
          }
        }
      ],
      "lstSymAPs": [],
      "mol": {
        "atoms": [
          {
            "elSymbol": "C",
            "p3d": {
              "x": 1.7088,
              "y": 0.551,
              "z": -1.2192
            }
          },
          {
            "elSymbol": "C",
            "p3d": {
              "x": 4.2535,
              "y": 0.8673,
              "z": -2.2548
            }
          },
          {
            "elSymbol": "C",
            "p3d": {
              "x": 2.3329,
              "y": 1.7979,
              "z": -1.1377
            }
          },
          {
            "elSymbol": "C",
            "p3d": {
              "x": 2.3315,
              "y": -0.5114,
              "z": -1.8171
            }
          },
          {
            "elSymbol": "C",
            "p3d": {
              "x": 3.6062,
              "y": -0.3595,
              "z": -2.3299
            }
          },
          {
            "elSymbol": "C",
            "p3d": {
              "x": 3.6205,
              "y": 1.9526,
              "z": -1.657
            }
          },
          {
            "elSymbol": "H",
            "p3d": {
              "x": 4.116,
              "y": -1.2062,
              "z": -2.8187
            }
          },
          {
            "elSymbol": "H",
            "p3d": {
              "x": 4.1193,
              "y": 2.9144,
              "z": -1.5883
            }
          },
          {
            "elSymbol": "H",
            "p3d": {
              "x": 5.2485,
              "y": 0.9961,
              "z": -2.6688
            }
          },
          {
            "elSymbol": "C",
            "p3d": {
              "x": 1.6389,
              "y": 2.9732,
              "z": -0.4581
            }
          },
          {
            "elSymbol": "H",
            "p3d": {
              "x": 2.3787,
              "y": 3.6649,
              "z": -0.0604
            }
          },
          {
            "elSymbol": "H",
            "p3d": {
              "x": 1.0049,
              "y": 2.601,
              "z": 0.3676
            }
          },
          {
            "elSymbol": "H",
            "p3d": {
              "x": 1.0013,
              "y": 3.4961,
              "z": -1.199
            }
          },
          {
            "elSymbol": "C",
            "p3d": {
              "x": 1.6397,
              "y": -1.8757,
              "z": -1.9164
            }
          },
          {
            "elSymbol": "H",
            "p3d": {
              "x": 2.3747,
              "y": -2.6603,
              "z": -1.9613
            }
          },
          {
            "elSymbol": "H",
            "p3d": {
              "x": 1.0044,
              "y": -1.9015,
              "z": -2.8054
            }
          },
          {
            "elSymbol": "H",
            "p3d": {
              "x": 1.0057,
              "y": -2.0243,
              "z": -1.0149
            }
          }
        ],
        "bonds": [
          {
            "atomIds": [
              0,
              3
            ],
            "bo": "SINGLE"
          },
          {
            "atomIds": [
              3,
              4
            ],
            "bo": "DOUBLE"
          },
          {
            "atomIds": [
              1,
              4
            ],
            "bo": "SINGLE"
          },
          {
            "atomIds": [
              1,
              5
            ],
            "bo": "DOUBLE"
          },
          {
            "atomIds": [
              2,
              5
            ],
            "bo": "SINGLE"
          },
          {
            "atomIds": [
              0,
              2
            ],
            "bo": "DOUBLE"
          },
          {
            "atomIds": [
              4,
              6
            ],
            "bo": "SINGLE"
          },
          {
            "atomIds": [
              5,
              7
            ],
            "bo": "SINGLE"
          },
          {
            "atomIds": [
              1,
              8
            ],
            "bo": "SINGLE"
          },
          {
            "atomIds": [
              9,
              10
            ],
            "bo": "SINGLE"
          },
          {
            "atomIds": [
              9,
              11
            ],
            "bo": "SINGLE"
          },
          {
            "atomIds": [
              9,
              12
            ],
            "bo": "SINGLE"
          },
          {
            "atomIds": [
              2,
              9
            ],
            "bo": "SINGLE"
          },
          {
            "atomIds": [
              13,
              14
            ],
            "bo": "SINGLE"
          },
          {
            "atomIds": [
              13,
              15
            ],
            "bo": "SINGLE"
          },
          {
            "atomIds": [
              13,
              16
            ],
            "bo": "SINGLE"
          },
          {
            "atomIds": [
              3,
              13
            ],
            "bo": "SINGLE"
          }
        ]
      },
      "vertexId": 528909,
      "buildingBlockId": 37,
      "buildingBlockType": "FRAGMENT",
      "isRCV": false,
      "properties": {
        "ATTACHMENT_POINTS": "1#SubArL:1:SINGLE:0.2957%0.3816%-0.6358 "
      },
      "uniquefyingPropertyKeys": [],
      "allowedMutationTypes": [
        "DELETE",
        "EXTEND",
        "CHANGEBRANCH",
        "CHANGELINK",
        "ADDLINK",
        "DELETELINK",
        "DELETECHAIN"
      ],
      "vertexType": "MolecularFragment"
    }
  ],
  "gEdges": [
    {
      "srcAPID": 603408,
      "trgAPID": 603411,
      "bondType": "SINGLE"
    },
    {
      "srcAPID": 603410,
      "trgAPID": 603413,
      "bondType": "SINGLE"
    },
    {
      "srcAPID": 603409,
      "trgAPID": 603414,
      "bondType": "SINGLE"
    },
    {
      "srcAPID": 603412,
      "trgAPID": 603415,
      "bondType": "SINGLE"
    },
    {
      "srcAPID": 603416,
      "trgAPID": 603447,
      "bondType": "SINGLE"
    }
  ],
  "gRings": [],
  "symVertices": []
}

> <SMILES>
[Pt](C#O)(SC([H])([H])[H])([P]1(OC2=C([H])C([H])=C([H])C(=C2C3=C([H])C([H])=C([H])C(=C3O1)[H])[H])OC=4C(=C(C(=C(C4C([H])([H])[H])[H])[H])[H])C([H])([H])[H])C#N

$$$$
