M00003594
  CDK     04222210003D

 42 43  0  0  0  0  0  0  0  0999 V2000
   -1.8496    0.4956    0.8647 Pt  0  0  0  0  0  0  0  0  0  0  0  0
   -3.7720    0.6681    1.1860 C   0  0  0  0  0  0  0  0  0  0  0  0
   -4.8931    0.7889    1.3746 O   0  0  0  0  0  0  0  0  0  0  0  0
   -0.9968    1.1549    2.6014 O   0  0  0  0  0  0  0  0  0  0  0  0
   -1.9475    1.5578    3.5630 C   0  0  0  0  0  0  0  0  0  0  0  0
   -1.3744    1.8690    4.4470 H   0  0  0  0  0  0  0  0  0  0  0  0
   -2.5972    0.7116    3.8167 H   0  0  0  0  0  0  0  0  0  0  0  0
   -2.5268    2.4046    3.1750 H   0  0  0  0  0  0  0  0  0  0  0  0
    1.5540    2.1469    2.1388 C   0  0  0  0  0  0  0  0  0  0  0  0
    0.6140    2.4331    2.6640 H   0  0  0  0  0  0  0  0  0  0  0  0
    2.1926    3.0397    1.9908 H   0  0  0  0  0  0  0  0  0  0  0  0
    2.2979    1.0061    2.8330 C   0  0  0  0  0  0  0  0  0  0  0  0
    3.2535    0.7971    2.3072 H   0  0  0  0  0  0  0  0  0  0  0  0
    2.5802    1.3114    3.8601 H   0  0  0  0  0  0  0  0  0  0  0  0
    1.4405   -0.2582    2.8834 C   0  0  0  0  0  0  0  0  0  0  0  0
    1.9831   -1.1205    3.3168 H   0  0  0  0  0  0  0  0  0  0  0  0
    0.4766   -0.1026    3.4210 H   0  0  0  0  0  0  0  0  0  0  0  0
    1.2380    1.8061    0.7590 O   0  0  0  0  0  0  0  0  0  0  0  0
    1.1638   -0.7510    1.5399 O   0  0  0  0  0  0  0  0  0  0  0  0
    0.3827    0.3750    0.5626 P   0  0  0  0  0  0  0  0  0  0  0  0
    1.0042   -0.1080   -1.1549 C   0  0  0  0  0  0  0  0  0  0  0  0
    1.4391   -2.0227   -2.7202 C   0  0  0  0  0  0  0  0  0  0  0  0
    0.6548    0.2145   -3.6203 C   0  0  0  0  0  0  0  0  0  0  0  0
    0.6254   -1.3089   -3.8090 C   0  0  0  0  0  0  0  0  0  0  0  0
    0.1695    0.6153   -2.2172 C   0  0  0  0  0  0  0  0  0  0  0  0
    0.9491   -1.6309   -1.3163 C   0  0  0  0  0  0  0  0  0  0  0  0
    2.5118   -1.7721   -2.8280 H   0  0  0  0  0  0  0  0  0  0  0  0
    1.6800    0.5949   -3.7886 H   0  0  0  0  0  0  0  0  0  0  0  0
   -0.4237   -1.6637   -3.7849 H   0  0  0  0  0  0  0  0  0  0  0  0
   -0.9191    0.3622   -2.1261 H   0  0  0  0  0  0  0  0  0  0  0  0
   -0.0960   -2.0104   -1.1870 H   0  0  0  0  0  0  0  0  0  0  0  0
    2.0716    0.2309   -1.2344 H   0  0  0  0  0  0  0  0  0  0  0  0
    1.3658   -3.1184   -2.8499 H   0  0  0  0  0  0  0  0  0  0  0  0
    0.0168    0.6997   -4.3833 H   0  0  0  0  0  0  0  0  0  0  0  0
    1.0171   -1.5735   -4.8083 H   0  0  0  0  0  0  0  0  0  0  0  0
    0.2387    1.7161   -2.1099 H   0  0  0  0  0  0  0  0  0  0  0  0
    1.5681   -2.1416   -0.5506 H   0  0  0  0  0  0  0  0  0  0  0  0
   -2.5402   -0.1462   -0.9489 O   0  0  0  0  0  0  0  0  0  0  0  0
   -2.6204   -1.5552   -0.9515 C   0  0  0  0  0  0  0  0  0  0  0  0
   -3.2740   -1.8135   -1.7966 H   0  0  0  0  0  0  0  0  0  0  0  0
   -3.0468   -1.9198   -0.0091 H   0  0  0  0  0  0  0  0  0  0  0  0
   -1.6113   -1.9823   -1.1100 H   0  0  0  0  0  0  0  0  0  0  0  0
  2  3  3  0  0  0  0
  1  2  1  0  0  0  0
  5  6  1  0  0  0  0
  5  7  1  0  0  0  0
  5  8  1  0  0  0  0
  4  5  1  0  0  0  0
  1  4  1  0  0  0  0
  9 10  1  0  0  0  0
 11  9  1  0  0  0  0
 12  9  1  0  0  0  0
 13 12  1  0  0  0  0
 14 12  1  0  0  0  0
 15 12  1  0  0  0  0
 16 15  1  0  0  0  0
 17 15  1  0  0  0  0
 18  9  1  0  0  0  0
 18 20  1  0  0  0  0
 19 15  1  0  0  0  0
 19 20  1  0  0  0  0
  1 20  1  0  0  0  0
 21 32  1  0  0  0  0
 21 25  1  0  0  0  0
 21 26  1  0  0  0  0
 22 27  1  0  0  0  0
 22 33  1  0  0  0  0
 22 24  1  0  0  0  0
 22 26  1  0  0  0  0
 23 28  1  0  0  0  0
 23 34  1  0  0  0  0
 23 25  1  0  0  0  0
 23 24  1  0  0  0  0
 24 29  1  0  0  0  0
 24 35  1  0  0  0  0
 25 30  1  0  0  0  0
 25 36  1  0  0  0  0
 26 31  1  0  0  0  0
 26 37  1  0  0  0  0
 20 21  1  0  0  0  0
 39 40  1  0  0  0  0
 39 41  1  0  0  0  0
 39 42  1  0  0  0  0
 38 39  1  0  0  0  0
  1 38  1  0  0  0  0
M  END
> <PM6_ENERGY>
-914.681

> <UID>
BRQVNQZJPOMZRC-HYIKIYPPNA-N

> <FITNESS>
1.14325

> <GCODE>
4299

> <GraphENC>
4299 72_1_0,80_65_1,119_59_1,86_65_1,83497_35_1, 72_0_80_0_SINGLE_Xlig:0_Xlig:1,72_2_119_1_SINGLE_scaff:0_MPhosphonite:1,72_1_86_0_SINGLE_Xlig:0_Xlig:1,119_0_83497_0_SINGLE_LPhosphoniteSubR:0_SubRM:1, 

> <GraphJson>
{
  "graphId": 4299,
  "gVertices": [
    {
      "lstAPs": [
        {
          "id": 110115,
          "atomPositionNumber": 0,
          "atomPositionNumberInMol": 0,
          "apClass": {
            "rule": "Xlig",
            "subClass": 0,
            "bndTyp": "SINGLE"
          },
          "dirVec": {
            "x": -2.3339,
            "y": -0.0087,
            "z": 0.8172
          }
        },
        {
          "id": 110116,
          "atomPositionNumber": 0,
          "atomPositionNumberInMol": 0,
          "apClass": {
            "rule": "Xlig",
            "subClass": 0,
            "bndTyp": "SINGLE"
          },
          "dirVec": {
            "x": 2.336,
            "y": -5.0E-4,
            "z": 0.829
          }
        },
        {
          "id": 110117,
          "atomPositionNumber": 0,
          "atomPositionNumberInMol": 0,
          "apClass": {
            "rule": "scaff",
            "subClass": 0,
            "bndTyp": "SINGLE"
          },
          "dirVec": {
            "x": -0.0095,
            "y": 0.0046,
            "z": -1.7113
          }
        }
      ],
      "lstSymAPs": [
        {
          "symIds": [
            0,
            1
          ]
        }
      ],
      "mol": {
        "atoms": [
          {
            "elSymbol": "Pt",
            "p3d": {
              "x": -0.0098,
              "y": 0.0049,
              "z": 0.6289
            }
          },
          {
            "elSymbol": "C",
            "p3d": {
              "x": -6.0E-4,
              "y": 0.0016,
              "z": 2.5609
            }
          },
          {
            "elSymbol": "O",
            "p3d": {
              "x": 0.0025,
              "y": -0.0041,
              "z": 3.6974
            }
          },
          {
            "elSymbol": "Du",
            "p3d": {
              "x": -0.007,
              "y": 1.0013,
              "z": 0.6372
            }
          },
          {
            "elSymbol": "Du",
            "p3d": {
              "x": -0.0014,
              "y": 0.9902,
              "z": 2.5698
            }
          }
        ],
        "bonds": [
          {
            "atomIds": [
              1,
              2
            ],
            "bo": "TRIPLE"
          },
          {
            "atomIds": [
              0,
              1
            ],
            "bo": "SINGLE"
          },
          {
            "atomIds": [
              3,
              0
            ],
            "bo": "SINGLE"
          },
          {
            "atomIds": [
              4,
              1
            ],
            "bo": "SINGLE"
          }
        ]
      },
      "vertexId": 72,
      "buildingBlockId": 0,
      "buildingBlockType": "SCAFFOLD",
      "isRCV": false,
      "properties": {
        "ATTACHMENT_POINTS": "1#Xlig:0:SINGLE:-2.3339%-0.0087%0.8172,Xlig:0:SINGLE:2.3360%-0.0005%0.8290,scaff:0:SINGLE:-0.0095%0.0046%-1.7113 "
      },
      "uniquefyingPropertyKeys": [],
      "allowedMutationTypes": [
        "DELETE",
        "EXTEND",
        "CHANGEBRANCH",
        "CHANGELINK",
        "ADDLINK",
        "DELETELINK",
        "DELETECHAIN"
      ],
      "vertexType": "MolecularFragment"
    },
    {
      "lstAPs": [
        {
          "id": 110118,
          "atomPositionNumber": 0,
          "atomPositionNumberInMol": 5,
          "apClass": {
            "rule": "Xlig",
            "subClass": 1,
            "bndTyp": "SINGLE"
          },
          "dirVec": {
            "x": -0.1753,
            "y": 0.0948,
            "z": -0.4464
          }
        }
      ],
      "lstSymAPs": [],
      "mol": {
        "atoms": [
          {
            "elSymbol": "O",
            "p3d": {
              "x": -0.3534,
              "y": 2.1044,
              "z": -0.7339
            }
          },
          {
            "elSymbol": "C",
            "p3d": {
              "x": -0.5345,
              "y": 2.7646,
              "z": 0.4801
            }
          },
          {
            "elSymbol": "H",
            "p3d": {
              "x": -0.3728,
              "y": 3.8337,
              "z": 0.2724
            }
          },
          {
            "elSymbol": "H",
            "p3d": {
              "x": 0.1816,
              "y": 2.4161,
              "z": 1.2384
            }
          },
          {
            "elSymbol": "H",
            "p3d": {
              "x": -1.553,
              "y": 2.6149,
              "z": 0.8489
            }
          }
        ],
        "bonds": [
          {
            "atomIds": [
              1,
              2
            ],
            "bo": "SINGLE"
          },
          {
            "atomIds": [
              1,
              3
            ],
            "bo": "SINGLE"
          },
          {
            "atomIds": [
              1,
              4
            ],
            "bo": "SINGLE"
          },
          {
            "atomIds": [
              0,
              1
            ],
            "bo": "SINGLE"
          }
        ]
      },
      "vertexId": 80,
      "buildingBlockId": 64,
      "buildingBlockType": "FRAGMENT",
      "isRCV": false,
      "properties": {
        "ATTACHMENT_POINTS": "1#Xlig:1:SINGLE:-0.1753%0.0948%-0.4464 "
      },
      "uniquefyingPropertyKeys": [],
      "allowedMutationTypes": [
        "DELETE",
        "EXTEND",
        "CHANGEBRANCH",
        "CHANGELINK",
        "ADDLINK",
        "DELETELINK",
        "DELETECHAIN"
      ],
      "vertexType": "MolecularFragment"
    },
    {
      "lstAPs": [
        {
          "id": 110119,
          "atomPositionNumber": 11,
          "atomPositionNumberInMol": 21,
          "apClass": {
            "rule": "LPhosphoniteSubR",
            "subClass": 0,
            "bndTyp": "SINGLE"
          },
          "dirVec": {
            "x": 2.7128,
            "y": 1.5224,
            "z": 3.4841
          }
        },
        {
          "id": 110120,
          "atomPositionNumber": 11,
          "atomPositionNumberInMol": 21,
          "apClass": {
            "rule": "MPhosphonite",
            "subClass": 1,
            "bndTyp": "SINGLE"
          },
          "dirVec": {
            "x": 2.5476,
            "y": 4.788,
            "z": 4.3969
          }
        }
      ],
      "lstSymAPs": [],
      "mol": {
        "atoms": [
          {
            "elSymbol": "C",
            "p3d": {
              "x": 0.7537,
              "y": 3.745,
              "z": 0.8399
            }
          },
          {
            "elSymbol": "H",
            "p3d": {
              "x": 0.5695,
              "y": 4.7704,
              "z": 1.1332
            }
          },
          {
            "elSymbol": "H",
            "p3d": {
              "x": -0.148,
              "y": 3.3512,
              "z": 0.3374
            }
          },
          {
            "elSymbol": "C",
            "p3d": {
              "x": 1.9094,
              "y": 3.7216,
              "z": -0.1375
            }
          },
          {
            "elSymbol": "H",
            "p3d": {
              "x": 2.0131,
              "y": 2.7201,
              "z": -0.556
            }
          },
          {
            "elSymbol": "H",
            "p3d": {
              "x": 1.7132,
              "y": 4.3969,
              "z": -0.9763
            }
          },
          {
            "elSymbol": "C",
            "p3d": {
              "x": 3.1937,
              "y": 4.0991,
              "z": 0.5062
            }
          },
          {
            "elSymbol": "H",
            "p3d": {
              "x": 4.0091,
              "y": 4.059,
              "z": -0.2475
            }
          },
          {
            "elSymbol": "H",
            "p3d": {
              "x": 3.1376,
              "y": 5.1254,
              "z": 0.85
            }
          },
          {
            "elSymbol": "O",
            "p3d": {
              "x": 1.0555,
              "y": 2.9275,
              "z": 2.0087
            }
          },
          {
            "elSymbol": "O",
            "p3d": {
              "x": 3.5155,
              "y": 3.2295,
              "z": 1.6213
            }
          },
          {
            "elSymbol": "P",
            "p3d": {
              "x": 2.4376,
              "y": 3.1406,
              "z": 2.7957
            }
          }
        ],
        "bonds": [
          {
            "atomIds": [
              0,
              1
            ],
            "bo": "SINGLE"
          },
          {
            "atomIds": [
              2,
              0
            ],
            "bo": "SINGLE"
          },
          {
            "atomIds": [
              3,
              0
            ],
            "bo": "SINGLE"
          },
          {
            "atomIds": [
              4,
              3
            ],
            "bo": "SINGLE"
          },
          {
            "atomIds": [
              5,
              3
            ],
            "bo": "SINGLE"
          },
          {
            "atomIds": [
              6,
              3
            ],
            "bo": "SINGLE"
          },
          {
            "atomIds": [
              7,
              6
            ],
            "bo": "SINGLE"
          },
          {
            "atomIds": [
              8,
              6
            ],
            "bo": "SINGLE"
          },
          {
            "atomIds": [
              9,
              0
            ],
            "bo": "SINGLE"
          },
          {
            "atomIds": [
              9,
              11
            ],
            "bo": "SINGLE"
          },
          {
            "atomIds": [
              10,
              6
            ],
            "bo": "SINGLE"
          },
          {
            "atomIds": [
              10,
              11
            ],
            "bo": "SINGLE"
          }
        ]
      },
      "vertexId": 119,
      "buildingBlockId": 58,
      "buildingBlockType": "FRAGMENT",
      "isRCV": false,
      "properties": {
        "ATTACHMENT_POINTS": "12#LPhosphoniteSubR:0:SINGLE:2.7128%1.5224%3.4841,MPhosphonite:1:SINGLE:2.5476%4.7880%4.3969 "
      },
      "uniquefyingPropertyKeys": [],
      "allowedMutationTypes": [
        "DELETE",
        "EXTEND",
        "CHANGEBRANCH",
        "CHANGELINK",
        "ADDLINK",
        "DELETELINK",
        "DELETECHAIN"
      ],
      "vertexType": "MolecularFragment"
    },
    {
      "lstAPs": [
        {
          "id": 110121,
          "atomPositionNumber": 0,
          "atomPositionNumberInMol": 39,
          "apClass": {
            "rule": "Xlig",
            "subClass": 1,
            "bndTyp": "SINGLE"
          },
          "dirVec": {
            "x": -0.1753,
            "y": 0.0948,
            "z": -0.4464
          }
        }
      ],
      "lstSymAPs": [],
      "mol": {
        "atoms": [
          {
            "elSymbol": "O",
            "p3d": {
              "x": -0.3534,
              "y": 2.1044,
              "z": -0.7339
            }
          },
          {
            "elSymbol": "C",
            "p3d": {
              "x": -0.5345,
              "y": 2.7646,
              "z": 0.4801
            }
          },
          {
            "elSymbol": "H",
            "p3d": {
              "x": -0.3728,
              "y": 3.8337,
              "z": 0.2724
            }
          },
          {
            "elSymbol": "H",
            "p3d": {
              "x": 0.1816,
              "y": 2.4161,
              "z": 1.2384
            }
          },
          {
            "elSymbol": "H",
            "p3d": {
              "x": -1.553,
              "y": 2.6149,
              "z": 0.8489
            }
          }
        ],
        "bonds": [
          {
            "atomIds": [
              1,
              2
            ],
            "bo": "SINGLE"
          },
          {
            "atomIds": [
              1,
              3
            ],
            "bo": "SINGLE"
          },
          {
            "atomIds": [
              1,
              4
            ],
            "bo": "SINGLE"
          },
          {
            "atomIds": [
              0,
              1
            ],
            "bo": "SINGLE"
          }
        ]
      },
      "vertexId": 86,
      "buildingBlockId": 64,
      "buildingBlockType": "FRAGMENT",
      "isRCV": false,
      "properties": {
        "ATTACHMENT_POINTS": "1#Xlig:1:SINGLE:-0.1753%0.0948%-0.4464 "
      },
      "uniquefyingPropertyKeys": [],
      "allowedMutationTypes": [
        "DELETE",
        "EXTEND",
        "CHANGEBRANCH",
        "CHANGELINK",
        "ADDLINK",
        "DELETELINK",
        "DELETECHAIN"
      ],
      "vertexType": "MolecularFragment"
    },
    {
      "lstAPs": [
        {
          "id": 110146,
          "atomPositionNumber": 0,
          "atomPositionNumberInMol": 22,
          "apClass": {
            "rule": "SubRM",
            "subClass": 1,
            "bndTyp": "SINGLE"
          },
          "dirVec": {
            "x": 0.2917,
            "y": 0.3929,
            "z": -0.6365
          }
        }
      ],
      "lstSymAPs": [],
      "mol": {
        "atoms": [
          {
            "elSymbol": "C",
            "p3d": {
              "x": 1.7002,
              "y": 0.56,
              "z": -1.2045
            }
          },
          {
            "elSymbol": "C",
            "p3d": {
              "x": 3.564,
              "y": -0.7339,
              "z": -2.2652
            }
          },
          {
            "elSymbol": "C",
            "p3d": {
              "x": 2.9237,
              "y": 1.5034,
              "z": -3.1926
            }
          },
          {
            "elSymbol": "C",
            "p3d": {
              "x": 3.4145,
              "y": 0.0994,
              "z": -3.5498
            }
          },
          {
            "elSymbol": "C",
            "p3d": {
              "x": 1.5576,
              "y": 1.3879,
              "z": -2.5024
            }
          },
          {
            "elSymbol": "C",
            "p3d": {
              "x": 2.203,
              "y": -0.843,
              "z": -1.5702
            }
          },
          {
            "elSymbol": "H",
            "p3d": {
              "x": 4.3384,
              "y": -0.3241,
              "z": -1.6106
            }
          },
          {
            "elSymbol": "H",
            "p3d": {
              "x": 3.6361,
              "y": 2.0524,
              "z": -2.5991
            }
          },
          {
            "elSymbol": "H",
            "p3d": {
              "x": 2.7828,
              "y": -0.3911,
              "z": -4.2916
            }
          },
          {
            "elSymbol": "H",
            "p3d": {
              "x": 0.7737,
              "y": 0.9833,
              "z": -3.15
            }
          },
          {
            "elSymbol": "H",
            "p3d": {
              "x": 1.4815,
              "y": -1.3988,
              "z": -2.1783
            }
          },
          {
            "elSymbol": "H",
            "p3d": {
              "x": 2.3445,
              "y": 1.0609,
              "z": -0.4835
            }
          },
          {
            "elSymbol": "H",
            "p3d": {
              "x": 3.8429,
              "y": -1.7623,
              "z": -2.577
            }
          },
          {
            "elSymbol": "H",
            "p3d": {
              "x": 2.7428,
              "y": 2.0124,
              "z": -4.146
            }
          },
          {
            "elSymbol": "H",
            "p3d": {
              "x": 4.4291,
              "y": 0.2183,
              "z": -3.9628
            }
          },
          {
            "elSymbol": "H",
            "p3d": {
              "x": 1.2819,
              "y": 2.4034,
              "z": -2.1821
            }
          },
          {
            "elSymbol": "H",
            "p3d": {
              "x": 2.3734,
              "y": -1.3662,
              "z": -0.6149
            }
          }
        ],
        "bonds": [
          {
            "atomIds": [
              0,
              11
            ],
            "bo": "SINGLE"
          },
          {
            "atomIds": [
              0,
              4
            ],
            "bo": "SINGLE"
          },
          {
            "atomIds": [
              0,
              5
            ],
            "bo": "SINGLE"
          },
          {
            "atomIds": [
              1,
              6
            ],
            "bo": "SINGLE"
          },
          {
            "atomIds": [
              1,
              12
            ],
            "bo": "SINGLE"
          },
          {
            "atomIds": [
              1,
              3
            ],
            "bo": "SINGLE"
          },
          {
            "atomIds": [
              1,
              5
            ],
            "bo": "SINGLE"
          },
          {
            "atomIds": [
              2,
              7
            ],
            "bo": "SINGLE"
          },
          {
            "atomIds": [
              2,
              13
            ],
            "bo": "SINGLE"
          },
          {
            "atomIds": [
              2,
              4
            ],
            "bo": "SINGLE"
          },
          {
            "atomIds": [
              2,
              3
            ],
            "bo": "SINGLE"
          },
          {
            "atomIds": [
              3,
              8
            ],
            "bo": "SINGLE"
          },
          {
            "atomIds": [
              3,
              14
            ],
            "bo": "SINGLE"
          },
          {
            "atomIds": [
              4,
              9
            ],
            "bo": "SINGLE"
          },
          {
            "atomIds": [
              4,
              15
            ],
            "bo": "SINGLE"
          },
          {
            "atomIds": [
              5,
              10
            ],
            "bo": "SINGLE"
          },
          {
            "atomIds": [
              5,
              16
            ],
            "bo": "SINGLE"
          }
        ]
      },
      "vertexId": 83497,
      "buildingBlockId": 34,
      "buildingBlockType": "FRAGMENT",
      "isRCV": false,
      "properties": {
        "ATTACHMENT_POINTS": "1#SubRM:1:SINGLE:0.2917%0.3929%-0.6365 "
      },
      "uniquefyingPropertyKeys": [],
      "allowedMutationTypes": [
        "DELETE",
        "EXTEND",
        "CHANGEBRANCH",
        "CHANGELINK",
        "ADDLINK",
        "DELETELINK",
        "DELETECHAIN"
      ],
      "vertexType": "MolecularFragment"
    }
  ],
  "gEdges": [
    {
      "srcAPID": 110115,
      "trgAPID": 110118,
      "bondType": "SINGLE"
    },
    {
      "srcAPID": 110117,
      "trgAPID": 110120,
      "bondType": "SINGLE"
    },
    {
      "srcAPID": 110116,
      "trgAPID": 110121,
      "bondType": "SINGLE"
    },
    {
      "srcAPID": 110119,
      "trgAPID": 110146,
      "bondType": "SINGLE"
    }
  ],
  "gRings": [],
  "symVertices": []
}

> <SMILES>
[Pt](C#O)(OC([H])([H])[H])([P]1(OC([H])([H])C([H])([H])C([H])([H])O1)C2([H])C(C([H])([H])C(C([H])([H])C2([H])[H])([H])[H])([H])[H])OC([H])([H])[H]

$$$$
