M00002619
  CDK     04222209373D

 51 54  0  0  0  0  0  0  0  0999 V2000
    2.2986    0.2264    0.8471 Pt  0  0  0  0  0  0  0  0  0  0  0  0
    4.2097   -0.0191    0.9198 C   0  0  0  0  0  0  0  0  0  0  0  0
    5.3447   -0.1718    0.9635 O   0  0  0  0  0  0  0  0  0  0  0  0
    1.9698   -1.7993    0.8961 O   0  0  0  0  0  0  0  0  0  0  0  0
    2.0575   -2.2910    2.2111 C   0  0  0  0  0  0  0  0  0  0  0  0
    1.9570   -3.3826    2.1285 H   0  0  0  0  0  0  0  0  0  0  0  0
    1.2421   -1.8800    2.8200 H   0  0  0  0  0  0  0  0  0  0  0  0
    3.0314   -2.0366    2.6478 H   0  0  0  0  0  0  0  0  0  0  0  0
   -0.4964    0.4708   -0.2431 N   0  0  0  0  0  0  0  0  0  0  0  0
   -0.4897    0.5052    2.0377 C   0  0  0  0  0  0  0  0  0  0  0  0
   -0.0889    0.5241    3.3656 C   0  0  0  0  0  0  0  0  0  0  0  0
    0.9714    0.4928    3.6267 H   0  0  0  0  0  0  0  0  0  0  0  0
   -1.0886    0.5855    4.3534 C   0  0  0  0  0  0  0  0  0  0  0  0
   -0.8011    0.6011    5.4049 H   0  0  0  0  0  0  0  0  0  0  0  0
   -2.4390    0.6255    4.0024 C   0  0  0  0  0  0  0  0  0  0  0  0
   -3.1985    0.6708    4.7842 H   0  0  0  0  0  0  0  0  0  0  0  0
   -2.8460    0.6089    2.6533 C   0  0  0  0  0  0  0  0  0  0  0  0
   -3.9021    0.6407    2.3964 H   0  0  0  0  0  0  0  0  0  0  0  0
   -1.8661    0.5505    1.6798 C   0  0  0  0  0  0  0  0  0  0  0  0
   -1.9924    0.5262    0.1547 C   0  0  0  0  0  0  0  0  0  0  0  0
    0.3267    0.4385    0.8132 C   0  0  1  0  0  0  0  0  0  0  0  0
   -0.2442    2.5958   -1.8331 H   0  0  0  0  0  0  0  0  0  0  0  0
   -0.0878    1.6411   -2.3372 C   0  0  0  0  0  0  0  0  0  0  0  0
   -0.1052    0.4505   -1.6420 C   0  0  0  0  0  0  0  0  0  0  0  0
    0.3574    0.4501   -4.4029 C   0  0  0  0  0  0  0  0  0  0  0  0
    0.1966   -0.8036   -2.2818 C   0  0  0  0  0  0  0  0  0  0  0  0
    0.1560    1.6333   -3.7389 C   0  0  0  0  0  0  0  0  0  0  0  0
    0.3837   -0.7917   -3.6910 C   0  0  0  0  0  0  0  0  0  0  0  0
    0.3446   -2.0368   -1.5730 C   0  0  0  0  0  0  0  0  0  0  0  0
    0.1754    2.5860   -4.2680 H   0  0  0  0  0  0  0  0  0  0  0  0
    0.7373   -2.0100   -5.4566 H   0  0  0  0  0  0  0  0  0  0  0  0
    0.5193    0.4360   -5.4809 H   0  0  0  0  0  0  0  0  0  0  0  0
    0.5827   -3.2044   -2.2543 C   0  0  0  0  0  0  0  0  0  0  0  0
    0.3329   -2.0336   -0.4730 H   0  0  0  0  0  0  0  0  0  0  0  0
    0.7085   -4.1431   -1.7149 H   0  0  0  0  0  0  0  0  0  0  0  0
    0.7015   -3.2039   -3.6741 C   0  0  0  0  0  0  0  0  0  0  0  0
    0.8789   -4.1488   -4.1863 H   0  0  0  0  0  0  0  0  0  0  0  0
    0.6176   -2.0269   -4.3746 C   0  0  0  0  0  0  0  0  0  0  0  0
   -2.6360    1.8002   -0.3774 C   0  0  0  0  0  0  0  0  0  0  0  0
   -2.6739    1.8149   -1.4755 H   0  0  0  0  0  0  0  0  0  0  0  0
   -2.0977    2.7021   -0.0536 H   0  0  0  0  0  0  0  0  0  0  0  0
   -3.6690    1.8964   -0.0178 H   0  0  0  0  0  0  0  0  0  0  0  0
   -2.6858   -0.7355   -0.3433 C   0  0  0  0  0  0  0  0  0  0  0  0
   -3.7404   -0.7542   -0.0426 H   0  0  0  0  0  0  0  0  0  0  0  0
   -2.2174   -1.6483    0.0547 H   0  0  0  0  0  0  0  0  0  0  0  0
   -2.6533   -0.8170   -1.4394 H   0  0  0  0  0  0  0  0  0  0  0  0
    2.6376    2.2241    0.5945 O   0  0  0  0  0  0  0  0  0  0  0  0
    2.3660    2.9174    1.7890 C   0  0  0  0  0  0  0  0  0  0  0  0
    2.6577    3.9600    1.5973 H   0  0  0  0  0  0  0  0  0  0  0  0
    2.9624    2.5041    2.6120 H   0  0  0  0  0  0  0  0  0  0  0  0
    1.2947    2.8593    2.0212 H   0  0  0  0  0  0  0  0  0  0  0  0
  2  3  3  0  0  0  0
  1  2  1  0  0  0  0
  5  6  1  0  0  0  0
  5  7  1  0  0  0  0
  5  8  1  0  0  0  0
  4  5  1  0  0  0  0
  1  4  1  0  0  0  0
  9 20  1  0  0  0  0
 10 11  1  0  0  0  0
 11 12  1  0  0  0  0
 13 11  2  0  0  0  0
 14 13  1  0  0  0  0
 15 13  1  0  0  0  0
 16 15  1  0  0  0  0
 17 15  2  0  0  0  0
 18 17  1  0  0  0  0
 19 10  2  0  0  0  0
 20 19  1  0  0  0  0
  9 21  1  0  0  0  0
 10 21  1  0  0  0  0
 17 19  1  0  0  0  0
  1 21  1  0  0  0  0
 22 23  1  0  0  0  0
 23 24  1  0  0  0  0
 23 27  2  0  0  0  0
 24 26  2  0  0  0  0
 26 28  1  0  0  0  0
 25 27  1  0  0  0  0
 25 28  2  0  0  0  0
 29 26  1  0  0  0  0
 28 38  1  0  0  0  0
 29 33  2  0  0  0  0
 33 36  1  0  0  0  0
 36 38  2  0  0  0  0
 25 32  1  0  0  0  0
 27 30  1  0  0  0  0
 29 34  1  0  0  0  0
 31 38  1  0  0  0  0
 36 37  1  0  0  0  0
 33 35  1  0  0  0  0
  9 24  1  0  0  0  0
 40 39  1  0  0  0  0
 41 39  1  0  0  0  0
 42 39  1  0  0  0  0
 20 39  1  0  0  0  0
 44 43  1  0  0  0  0
 45 43  1  0  0  0  0
 46 43  1  0  0  0  0
 20 43  1  0  0  0  0
 48 49  1  0  0  0  0
 48 50  1  0  0  0  0
 48 51  1  0  0  0  0
 47 48  1  0  0  0  0
  1 47  1  0  0  0  0
M  END
> <PM6_ENERGY>
39.379

> <UID>
TXKFNDXRANPDHO-OZTIYFCPNA-N

> <FITNESS>
1.14606

> <GCODE>
3282

> <GraphENC>
3282 72_1_0,80_65_1,93_15_1,86_65_1,62541_39_1,62920_29_1,62546_29_1, 72_0_80_0_SINGLE_Xlig:0_Xlig:1,72_2_93_3_SINGLE_scaff:0_MIsoindolylidene:1,72_1_86_0_SINGLE_Xlig:0_Xlig:1,93_0_62541_0_SINGLE_LIsoindolylideneSubNL:0_SubArM:1,93_2_62920_0_SINGLE_LIsoindolylideneSubCS:0_LIsoindolylideneSubCS:1,93_1_62546_0_SINGLE_LIsoindolylideneSubCS:0_LIsoindolylideneSubCS:1, SymmetricSet [symIds=[62920, 62546]] 

> <GraphJson>
{
  "graphId": 3282,
  "gVertices": [
    {
      "lstAPs": [
        {
          "id": 83523,
          "atomPositionNumber": 0,
          "atomPositionNumberInMol": 0,
          "apClass": {
            "rule": "Xlig",
            "subClass": 0,
            "bndTyp": "SINGLE"
          },
          "dirVec": {
            "x": -2.3339,
            "y": -0.0087,
            "z": 0.8172
          }
        },
        {
          "id": 83524,
          "atomPositionNumber": 0,
          "atomPositionNumberInMol": 0,
          "apClass": {
            "rule": "Xlig",
            "subClass": 0,
            "bndTyp": "SINGLE"
          },
          "dirVec": {
            "x": 2.336,
            "y": -5.0E-4,
            "z": 0.829
          }
        },
        {
          "id": 83525,
          "atomPositionNumber": 0,
          "atomPositionNumberInMol": 0,
          "apClass": {
            "rule": "scaff",
            "subClass": 0,
            "bndTyp": "SINGLE"
          },
          "dirVec": {
            "x": -0.0095,
            "y": 0.0046,
            "z": -1.7113
          }
        }
      ],
      "lstSymAPs": [
        {
          "symIds": [
            0,
            1
          ]
        }
      ],
      "mol": {
        "atoms": [
          {
            "elSymbol": "Pt",
            "p3d": {
              "x": -0.0098,
              "y": 0.0049,
              "z": 0.6289
            }
          },
          {
            "elSymbol": "C",
            "p3d": {
              "x": -6.0E-4,
              "y": 0.0016,
              "z": 2.5609
            }
          },
          {
            "elSymbol": "O",
            "p3d": {
              "x": 0.0025,
              "y": -0.0041,
              "z": 3.6974
            }
          },
          {
            "elSymbol": "Du",
            "p3d": {
              "x": -0.007,
              "y": 1.0013,
              "z": 0.6372
            }
          },
          {
            "elSymbol": "Du",
            "p3d": {
              "x": -0.0014,
              "y": 0.9902,
              "z": 2.5698
            }
          }
        ],
        "bonds": [
          {
            "atomIds": [
              1,
              2
            ],
            "bo": "TRIPLE"
          },
          {
            "atomIds": [
              0,
              1
            ],
            "bo": "SINGLE"
          },
          {
            "atomIds": [
              3,
              0
            ],
            "bo": "SINGLE"
          },
          {
            "atomIds": [
              4,
              1
            ],
            "bo": "SINGLE"
          }
        ]
      },
      "vertexId": 72,
      "buildingBlockId": 0,
      "buildingBlockType": "SCAFFOLD",
      "isRCV": false,
      "properties": {
        "ATTACHMENT_POINTS": "1#Xlig:0:SINGLE:-2.3339%-0.0087%0.8172,Xlig:0:SINGLE:2.3360%-0.0005%0.8290,scaff:0:SINGLE:-0.0095%0.0046%-1.7113 "
      },
      "uniquefyingPropertyKeys": [],
      "allowedMutationTypes": [
        "DELETE",
        "EXTEND",
        "CHANGEBRANCH",
        "CHANGELINK",
        "ADDLINK",
        "DELETELINK",
        "DELETECHAIN"
      ],
      "vertexType": "MolecularFragment"
    },
    {
      "lstAPs": [
        {
          "id": 83526,
          "atomPositionNumber": 0,
          "atomPositionNumberInMol": 5,
          "apClass": {
            "rule": "Xlig",
            "subClass": 1,
            "bndTyp": "SINGLE"
          },
          "dirVec": {
            "x": -0.1753,
            "y": 0.0948,
            "z": -0.4464
          }
        }
      ],
      "lstSymAPs": [],
      "mol": {
        "atoms": [
          {
            "elSymbol": "O",
            "p3d": {
              "x": -0.3534,
              "y": 2.1044,
              "z": -0.7339
            }
          },
          {
            "elSymbol": "C",
            "p3d": {
              "x": -0.5345,
              "y": 2.7646,
              "z": 0.4801
            }
          },
          {
            "elSymbol": "H",
            "p3d": {
              "x": -0.3728,
              "y": 3.8337,
              "z": 0.2724
            }
          },
          {
            "elSymbol": "H",
            "p3d": {
              "x": 0.1816,
              "y": 2.4161,
              "z": 1.2384
            }
          },
          {
            "elSymbol": "H",
            "p3d": {
              "x": -1.553,
              "y": 2.6149,
              "z": 0.8489
            }
          }
        ],
        "bonds": [
          {
            "atomIds": [
              1,
              2
            ],
            "bo": "SINGLE"
          },
          {
            "atomIds": [
              1,
              3
            ],
            "bo": "SINGLE"
          },
          {
            "atomIds": [
              1,
              4
            ],
            "bo": "SINGLE"
          },
          {
            "atomIds": [
              0,
              1
            ],
            "bo": "SINGLE"
          }
        ]
      },
      "vertexId": 80,
      "buildingBlockId": 64,
      "buildingBlockType": "FRAGMENT",
      "isRCV": false,
      "properties": {
        "ATTACHMENT_POINTS": "1#Xlig:1:SINGLE:-0.1753%0.0948%-0.4464 "
      },
      "uniquefyingPropertyKeys": [],
      "allowedMutationTypes": [
        "DELETE",
        "EXTEND",
        "CHANGEBRANCH",
        "CHANGELINK",
        "ADDLINK",
        "DELETELINK",
        "DELETECHAIN"
      ],
      "vertexType": "MolecularFragment"
    },
    {
      "lstAPs": [
        {
          "id": 83527,
          "atomPositionNumber": 0,
          "atomPositionNumberInMol": 10,
          "apClass": {
            "rule": "LIsoindolylideneSubNL",
            "subClass": 0,
            "bndTyp": "SINGLE"
          },
          "dirVec": {
            "x": 8.2611,
            "y": 13.2699,
            "z": 19.2517
          }
        },
        {
          "id": 83528,
          "atomPositionNumber": 11,
          "atomPositionNumberInMol": 21,
          "apClass": {
            "rule": "LIsoindolylideneSubCS",
            "subClass": 0,
            "bndTyp": "SINGLE"
          },
          "dirVec": {
            "x": 8.8004,
            "y": 11.8294,
            "z": 16.2112
          }
        },
        {
          "id": 83529,
          "atomPositionNumber": 11,
          "atomPositionNumberInMol": 21,
          "apClass": {
            "rule": "LIsoindolylideneSubCS",
            "subClass": 0,
            "bndTyp": "SINGLE"
          },
          "dirVec": {
            "x": 9.9911,
            "y": 10.7246,
            "z": 18.2628
          }
        },
        {
          "id": 83530,
          "atomPositionNumber": 12,
          "atomPositionNumberInMol": 22,
          "apClass": {
            "rule": "MIsoindolylidene",
            "subClass": 1,
            "bndTyp": "SINGLE"
          },
          "dirVec": {
            "x": 10.5893,
            "y": 15.7982,
            "z": 19.2952
          }
        }
      ],
      "lstSymAPs": [
        {
          "symIds": [
            1,
            2
          ]
        }
      ],
      "mol": {
        "atoms": [
          {
            "elSymbol": "N",
            "p3d": {
              "x": 9.4489,
              "y": 13.1799,
              "z": 18.2942
            }
          },
          {
            "elSymbol": "C",
            "p3d": {
              "x": 11.4201,
              "y": 13.7017,
              "z": 17.3025
            }
          },
          {
            "elSymbol": "C",
            "p3d": {
              "x": 12.5951,
              "y": 14.339,
              "z": 16.9164
            }
          },
          {
            "elSymbol": "H",
            "p3d": {
              "x": 12.8733,
              "y": 15.3,
              "z": 17.3622
            }
          },
          {
            "elSymbol": "C",
            "p3d": {
              "x": 13.4411,
              "y": 13.7204,
              "z": 15.9914
            }
          },
          {
            "elSymbol": "H",
            "p3d": {
              "x": 14.3384,
              "y": 14.2201,
              "z": 15.6587
            }
          },
          {
            "elSymbol": "C",
            "p3d": {
              "x": 13.0993,
              "y": 12.4808,
              "z": 15.4917
            }
          },
          {
            "elSymbol": "H",
            "p3d": {
              "x": 13.7585,
              "y": 11.989,
              "z": 14.7813
            }
          },
          {
            "elSymbol": "C",
            "p3d": {
              "x": 11.9512,
              "y": 11.8214,
              "z": 15.8884
            }
          },
          {
            "elSymbol": "H",
            "p3d": {
              "x": 11.7213,
              "y": 10.8277,
              "z": 15.5012
            }
          },
          {
            "elSymbol": "C",
            "p3d": {
              "x": 11.1202,
              "y": 12.434,
              "z": 16.8015
            }
          },
          {
            "elSymbol": "C",
            "p3d": {
              "x": 9.7825,
              "y": 11.9664,
              "z": 17.3844
            }
          },
          {
            "elSymbol": "C",
            "p3d": {
              "x": 10.4002,
              "y": 14.1128,
              "z": 18.2438
            }
          }
        ],
        "bonds": [
          {
            "atomIds": [
              0,
              11
            ],
            "bo": "SINGLE"
          },
          {
            "atomIds": [
              1,
              2
            ],
            "bo": "SINGLE"
          },
          {
            "atomIds": [
              2,
              3
            ],
            "bo": "SINGLE"
          },
          {
            "atomIds": [
              4,
              2
            ],
            "bo": "DOUBLE"
          },
          {
            "atomIds": [
              5,
              4
            ],
            "bo": "SINGLE"
          },
          {
            "atomIds": [
              6,
              4
            ],
            "bo": "SINGLE"
          },
          {
            "atomIds": [
              7,
              6
            ],
            "bo": "SINGLE"
          },
          {
            "atomIds": [
              8,
              6
            ],
            "bo": "DOUBLE"
          },
          {
            "atomIds": [
              9,
              8
            ],
            "bo": "SINGLE"
          },
          {
            "atomIds": [
              10,
              1
            ],
            "bo": "DOUBLE"
          },
          {
            "atomIds": [
              11,
              10
            ],
            "bo": "SINGLE"
          },
          {
            "atomIds": [
              0,
              12
            ],
            "bo": "SINGLE"
          },
          {
            "atomIds": [
              1,
              12
            ],
            "bo": "SINGLE"
          },
          {
            "atomIds": [
              8,
              10
            ],
            "bo": "SINGLE"
          }
        ]
      },
      "vertexId": 93,
      "buildingBlockId": 14,
      "buildingBlockType": "FRAGMENT",
      "isRCV": false,
      "properties": {
        "ATTACHMENT_POINTS": "1#LIsoindolylideneSubNL:0:SINGLE:8.2611%13.2699%19.2517 12#LIsoindolylideneSubCS:0:SINGLE:8.8004%11.8294%16.2112,LIsoindolylideneSubCS:0:SINGLE:9.9911%10.7246%18.2628 13#MIsoindolylidene:1:SINGLE:10.5893%15.7982%19.2952 "
      },
      "uniquefyingPropertyKeys": [],
      "allowedMutationTypes": [
        "DELETE",
        "EXTEND",
        "CHANGEBRANCH",
        "CHANGELINK",
        "ADDLINK",
        "DELETELINK",
        "DELETECHAIN"
      ],
      "vertexType": "MolecularFragment"
    },
    {
      "lstAPs": [
        {
          "id": 83531,
          "atomPositionNumber": 0,
          "atomPositionNumberInMol": 48,
          "apClass": {
            "rule": "Xlig",
            "subClass": 1,
            "bndTyp": "SINGLE"
          },
          "dirVec": {
            "x": -0.1753,
            "y": 0.0948,
            "z": -0.4464
          }
        }
      ],
      "lstSymAPs": [],
      "mol": {
        "atoms": [
          {
            "elSymbol": "O",
            "p3d": {
              "x": -0.3534,
              "y": 2.1044,
              "z": -0.7339
            }
          },
          {
            "elSymbol": "C",
            "p3d": {
              "x": -0.5345,
              "y": 2.7646,
              "z": 0.4801
            }
          },
          {
            "elSymbol": "H",
            "p3d": {
              "x": -0.3728,
              "y": 3.8337,
              "z": 0.2724
            }
          },
          {
            "elSymbol": "H",
            "p3d": {
              "x": 0.1816,
              "y": 2.4161,
              "z": 1.2384
            }
          },
          {
            "elSymbol": "H",
            "p3d": {
              "x": -1.553,
              "y": 2.6149,
              "z": 0.8489
            }
          }
        ],
        "bonds": [
          {
            "atomIds": [
              1,
              2
            ],
            "bo": "SINGLE"
          },
          {
            "atomIds": [
              1,
              3
            ],
            "bo": "SINGLE"
          },
          {
            "atomIds": [
              1,
              4
            ],
            "bo": "SINGLE"
          },
          {
            "atomIds": [
              0,
              1
            ],
            "bo": "SINGLE"
          }
        ]
      },
      "vertexId": 86,
      "buildingBlockId": 64,
      "buildingBlockType": "FRAGMENT",
      "isRCV": false,
      "properties": {
        "ATTACHMENT_POINTS": "1#Xlig:1:SINGLE:-0.1753%0.0948%-0.4464 "
      },
      "uniquefyingPropertyKeys": [],
      "allowedMutationTypes": [
        "DELETE",
        "EXTEND",
        "CHANGEBRANCH",
        "CHANGELINK",
        "ADDLINK",
        "DELETELINK",
        "DELETECHAIN"
      ],
      "vertexType": "MolecularFragment"
    },
    {
      "lstAPs": [
        {
          "id": 83568,
          "atomPositionNumber": 2,
          "atomPositionNumberInMol": 25,
          "apClass": {
            "rule": "SubArM",
            "subClass": 1,
            "bndTyp": "SINGLE"
          },
          "dirVec": {
            "x": 0.2839,
            "y": 0.3907,
            "z": -0.6271
          }
        }
      ],
      "lstSymAPs": [],
      "mol": {
        "atoms": [
          {
            "elSymbol": "H",
            "p3d": {
              "x": 1.8079,
              "y": 2.6521,
              "z": -0.6457
            }
          },
          {
            "elSymbol": "C",
            "p3d": {
              "x": 2.3292,
              "y": 1.8028,
              "z": -1.1346
            }
          },
          {
            "elSymbol": "C",
            "p3d": {
              "x": 1.6928,
              "y": 0.5701,
              "z": -1.2214
            }
          },
          {
            "elSymbol": "C",
            "p3d": {
              "x": 4.26,
              "y": 0.9161,
              "z": -2.2564
            }
          },
          {
            "elSymbol": "C",
            "p3d": {
              "x": 2.3547,
              "y": -0.5116,
              "z": -1.8205
            }
          },
          {
            "elSymbol": "C",
            "p3d": {
              "x": 3.6118,
              "y": 1.9867,
              "z": -1.654
            }
          },
          {
            "elSymbol": "C",
            "p3d": {
              "x": 3.6519,
              "y": -0.333,
              "z": -2.339
            }
          },
          {
            "elSymbol": "C",
            "p3d": {
              "x": 1.7318,
              "y": -1.7781,
              "z": -1.8989
            }
          },
          {
            "elSymbol": "H",
            "p3d": {
              "x": 4.0936,
              "y": 2.9609,
              "z": -1.5808
            }
          },
          {
            "elSymbol": "H",
            "p3d": {
              "x": 5.3077,
              "y": -1.3005,
              "z": -3.3639
            }
          },
          {
            "elSymbol": "H",
            "p3d": {
              "x": 5.2705,
              "y": 1.0583,
              "z": -2.6578
            }
          },
          {
            "elSymbol": "C",
            "p3d": {
              "x": 2.3998,
              "y": -2.8526,
              "z": -2.5007
            }
          },
          {
            "elSymbol": "H",
            "p3d": {
              "x": 0.724,
              "y": -1.9306,
              "z": -1.4908
            }
          },
          {
            "elSymbol": "H",
            "p3d": {
              "x": 1.9155,
              "y": -3.8304,
              "z": -2.576
            }
          },
          {
            "elSymbol": "C",
            "p3d": {
              "x": 3.684,
              "y": -2.6697,
              "z": -3.0355
            }
          },
          {
            "elSymbol": "H",
            "p3d": {
              "x": 4.2028,
              "y": -3.5195,
              "z": -3.4955
            }
          },
          {
            "elSymbol": "C",
            "p3d": {
              "x": 4.3092,
              "y": -1.4197,
              "z": -2.9387
            }
          }
        ],
        "bonds": [
          {
            "atomIds": [
              0,
              1
            ],
            "bo": "SINGLE"
          },
          {
            "atomIds": [
              1,
              2
            ],
            "bo": "SINGLE"
          },
          {
            "atomIds": [
              1,
              5
            ],
            "bo": "DOUBLE"
          },
          {
            "atomIds": [
              2,
              4
            ],
            "bo": "DOUBLE"
          },
          {
            "atomIds": [
              4,
              6
            ],
            "bo": "SINGLE"
          },
          {
            "atomIds": [
              3,
              5
            ],
            "bo": "SINGLE"
          },
          {
            "atomIds": [
              3,
              6
            ],
            "bo": "DOUBLE"
          },
          {
            "atomIds": [
              7,
              4
            ],
            "bo": "SINGLE"
          },
          {
            "atomIds": [
              6,
              16
            ],
            "bo": "SINGLE"
          },
          {
            "atomIds": [
              7,
              11
            ],
            "bo": "DOUBLE"
          },
          {
            "atomIds": [
              11,
              14
            ],
            "bo": "SINGLE"
          },
          {
            "atomIds": [
              14,
              16
            ],
            "bo": "DOUBLE"
          },
          {
            "atomIds": [
              3,
              10
            ],
            "bo": "SINGLE"
          },
          {
            "atomIds": [
              5,
              8
            ],
            "bo": "SINGLE"
          },
          {
            "atomIds": [
              7,
              12
            ],
            "bo": "SINGLE"
          },
          {
            "atomIds": [
              9,
              16
            ],
            "bo": "SINGLE"
          },
          {
            "atomIds": [
              14,
              15
            ],
            "bo": "SINGLE"
          },
          {
            "atomIds": [
              11,
              13
            ],
            "bo": "SINGLE"
          }
        ]
      },
      "vertexId": 62541,
      "buildingBlockId": 38,
      "buildingBlockType": "FRAGMENT",
      "isRCV": false,
      "properties": {
        "ATTACHMENT_POINTS": "3#SubArM:1:SINGLE:0.2839%0.3907%-0.6271 "
      },
      "uniquefyingPropertyKeys": [],
      "allowedMutationTypes": [
        "DELETE",
        "EXTEND",
        "CHANGEBRANCH",
        "CHANGELINK",
        "ADDLINK",
        "DELETELINK",
        "DELETECHAIN"
      ],
      "vertexType": "MolecularFragment"
    },
    {
      "lstAPs": [
        {
          "id": 83569,
          "atomPositionNumber": 0,
          "atomPositionNumberInMol": 40,
          "apClass": {
            "rule": "LIsoindolylideneSubCS",
            "subClass": 1,
            "bndTyp": "SINGLE"
          },
          "dirVec": {
            "x": -0.025,
            "y": 17.9977,
            "z": 6.198
          }
        }
      ],
      "lstSymAPs": [],
      "mol": {
        "atoms": [
          {
            "elSymbol": "C",
            "p3d": {
              "x": -1.0726,
              "y": 17.7752,
              "z": 7.3038
            }
          },
          {
            "elSymbol": "H",
            "p3d": {
              "x": -1.9064,
              "y": 17.1937,
              "z": 6.9026
            }
          },
          {
            "elSymbol": "H",
            "p3d": {
              "x": -1.4256,
              "y": 18.7349,
              "z": 7.6795
            }
          },
          {
            "elSymbol": "H",
            "p3d": {
              "x": -0.6103,
              "y": 17.2081,
              "z": 8.1194
            }
          }
        ],
        "bonds": [
          {
            "atomIds": [
              1,
              0
            ],
            "bo": "SINGLE"
          },
          {
            "atomIds": [
              2,
              0
            ],
            "bo": "SINGLE"
          },
          {
            "atomIds": [
              3,
              0
            ],
            "bo": "SINGLE"
          }
        ]
      },
      "vertexId": 62920,
      "buildingBlockId": 28,
      "buildingBlockType": "FRAGMENT",
      "isRCV": false,
      "properties": {
        "ATTACHMENT_POINTS": "1#LIsoindolylideneSubCS:1:SINGLE:-0.0250%17.9977%6.1980 "
      },
      "uniquefyingPropertyKeys": [],
      "allowedMutationTypes": [
        "DELETE",
        "EXTEND",
        "CHANGEBRANCH",
        "CHANGELINK",
        "ADDLINK",
        "DELETELINK",
        "DELETECHAIN"
      ],
      "vertexType": "MolecularFragment"
    },
    {
      "lstAPs": [
        {
          "id": 83570,
          "atomPositionNumber": 0,
          "atomPositionNumberInMol": 44,
          "apClass": {
            "rule": "LIsoindolylideneSubCS",
            "subClass": 1,
            "bndTyp": "SINGLE"
          },
          "dirVec": {
            "x": -0.025,
            "y": 17.9977,
            "z": 6.198
          }
        }
      ],
      "lstSymAPs": [],
      "mol": {
        "atoms": [
          {
            "elSymbol": "C",
            "p3d": {
              "x": -1.0726,
              "y": 17.7752,
              "z": 7.3038
            }
          },
          {
            "elSymbol": "H",
            "p3d": {
              "x": -1.9064,
              "y": 17.1937,
              "z": 6.9026
            }
          },
          {
            "elSymbol": "H",
            "p3d": {
              "x": -1.4256,
              "y": 18.7349,
              "z": 7.6795
            }
          },
          {
            "elSymbol": "H",
            "p3d": {
              "x": -0.6103,
              "y": 17.2081,
              "z": 8.1194
            }
          }
        ],
        "bonds": [
          {
            "atomIds": [
              1,
              0
            ],
            "bo": "SINGLE"
          },
          {
            "atomIds": [
              2,
              0
            ],
            "bo": "SINGLE"
          },
          {
            "atomIds": [
              3,
              0
            ],
            "bo": "SINGLE"
          }
        ]
      },
      "vertexId": 62546,
      "buildingBlockId": 28,
      "buildingBlockType": "FRAGMENT",
      "isRCV": false,
      "properties": {
        "ATTACHMENT_POINTS": "1#LIsoindolylideneSubCS:1:SINGLE:-0.0250%17.9977%6.1980 "
      },
      "uniquefyingPropertyKeys": [],
      "allowedMutationTypes": [
        "DELETE",
        "EXTEND",
        "CHANGEBRANCH",
        "CHANGELINK",
        "ADDLINK",
        "DELETELINK",
        "DELETECHAIN"
      ],
      "vertexType": "MolecularFragment"
    }
  ],
  "gEdges": [
    {
      "srcAPID": 83523,
      "trgAPID": 83526,
      "bondType": "SINGLE"
    },
    {
      "srcAPID": 83525,
      "trgAPID": 83530,
      "bondType": "SINGLE"
    },
    {
      "srcAPID": 83524,
      "trgAPID": 83531,
      "bondType": "SINGLE"
    },
    {
      "srcAPID": 83527,
      "trgAPID": 83568,
      "bondType": "SINGLE"
    },
    {
      "srcAPID": 83529,
      "trgAPID": 83569,
      "bondType": "SINGLE"
    },
    {
      "srcAPID": 83528,
      "trgAPID": 83570,
      "bondType": "SINGLE"
    }
  ],
  "gRings": [],
  "symVertices": [
    {
      "symIds": [
        62920,
        62546
      ]
    }
  ]
}

> <SMILES>
[Pt](C#O)(OC([H])([H])[H])([C]1N(C(C2=C1C([H])=C([H])C([H])=C2[H])(C([H])([H])[H])C([H])([H])[H])C=3C([H])=C(C(=C4C3C(=C(C(=C4[H])[H])[H])[H])[H])[H])OC([H])([H])[H]

$$$$
