M00005046
  CDK     04222210303D

 50 50  0  0  0  0  0  0  0  0999 V2000
    2.6802    0.1681    0.3507 Pt  0  0  0  0  0  0  0  0  0  0  0  0
    4.5796    0.2291    0.6036 C   0  0  0  0  0  0  0  0  0  0  0  0
    5.7113    0.3127    0.7640 O   0  0  0  0  0  0  0  0  0  0  0  0
    2.6425   -1.8793    0.2624 O   0  0  0  0  0  0  0  0  0  0  0  0
    2.6559   -2.4212    1.5619 C   0  0  0  0  0  0  0  0  0  0  0  0
    2.6319   -3.5125    1.4277 H   0  0  0  0  0  0  0  0  0  0  0  0
    1.7698   -2.0865    2.1172 H   0  0  0  0  0  0  0  0  0  0  0  0
    3.5759   -2.1264    2.0835 H   0  0  0  0  0  0  0  0  0  0  0  0
   -0.0204    0.1327   -1.0515 N   0  0  0  0  0  0  0  0  0  0  0  0
   -0.1830    0.3771    1.1754 N   0  0  0  0  0  0  0  0  0  0  0  0
    0.6721    0.2293    0.1204 C   0  0  1  0  0  0  0  0  0  0  0  0
   -1.5222    0.1684   -0.8249 C   0  0  0  0  0  0  0  0  0  0  0  0
   -1.6094    0.3499    0.7337 C   0  0  0  0  0  0  0  0  0  0  0  0
   -2.1499   -0.4866    1.2193 H   0  0  0  0  0  0  0  0  0  0  0  0
   -2.1182    1.2932    1.0169 H   0  0  0  0  0  0  0  0  0  0  0  0
   -3.6046    1.5882   -1.3152 C   0  0  0  0  0  0  0  0  0  0  0  0
   -2.1149    1.3876   -1.5663 C   0  0  0  0  0  0  0  0  0  0  0  0
   -3.8336    1.7148   -0.2508 H   0  0  0  0  0  0  0  0  0  0  0  0
   -3.9652    2.4896   -1.8288 H   0  0  0  0  0  0  0  0  0  0  0  0
   -4.2032    0.7473   -1.6857 H   0  0  0  0  0  0  0  0  0  0  0  0
   -1.9351    1.2846   -2.6558 H   0  0  0  0  0  0  0  0  0  0  0  0
   -1.5588    2.3019   -1.2649 H   0  0  0  0  0  0  0  0  0  0  0  0
    1.7915   -0.9699   -2.3495 C   0  0  0  0  0  0  0  0  0  0  0  0
    0.6193    0.0104   -2.4015 C   0  0  0  0  0  0  0  0  0  0  0  0
    1.0792    1.3930   -2.8735 C   0  0  0  0  0  0  0  0  0  0  0  0
    0.2502    2.0965   -2.9918 H   0  0  0  0  0  0  0  0  0  0  0  0
    1.6024    1.3264   -3.8342 H   0  0  0  0  0  0  0  0  0  0  0  0
    1.7836    1.8520   -2.1572 H   0  0  0  0  0  0  0  0  0  0  0  0
    2.0126   -1.3745   -3.3429 H   0  0  0  0  0  0  0  0  0  0  0  0
    2.7224   -0.5015   -1.9784 H   0  0  0  0  0  0  0  0  0  0  0  0
    1.6046   -1.8321   -1.6814 H   0  0  0  0  0  0  0  0  0  0  0  0
   -0.1708   -0.3869   -3.0935 H   0  0  0  0  0  0  0  0  0  0  0  0
   -0.4586   -0.4153    3.5108 C   0  0  0  0  0  0  0  0  0  0  0  0
    0.2632    0.5684    2.5875 C   0  0  0  0  0  0  0  0  0  0  0  0
    0.0395    2.0218    3.0080 C   0  0  0  0  0  0  0  0  0  0  0  0
   -1.0144    2.3132    2.9946 H   0  0  0  0  0  0  0  0  0  0  0  0
    0.5821    2.7100    2.3364 H   0  0  0  0  0  0  0  0  0  0  0  0
    0.4203    2.2018    4.0202 H   0  0  0  0  0  0  0  0  0  0  0  0
   -1.5246   -0.1856    3.6163 H   0  0  0  0  0  0  0  0  0  0  0  0
   -0.3755   -1.4488    3.1526 H   0  0  0  0  0  0  0  0  0  0  0  0
   -0.0250   -0.3837    4.5187 H   0  0  0  0  0  0  0  0  0  0  0  0
    1.3768    0.3518    2.5946 H   0  0  0  0  0  0  0  0  0  0  0  0
   -1.5773   -2.4022   -0.6783 C   0  0  0  0  0  0  0  0  0  0  0  0
   -2.1752   -1.1461   -1.3003 C   0  0  0  0  0  0  0  0  0  0  0  0
   -1.6899   -2.4206    0.4117 H   0  0  0  0  0  0  0  0  0  0  0  0
   -2.0568   -3.3049   -1.0745 H   0  0  0  0  0  0  0  0  0  0  0  0
   -0.5002   -2.4890   -0.8864 H   0  0  0  0  0  0  0  0  0  0  0  0
   -2.1003   -1.2131   -2.4053 H   0  0  0  0  0  0  0  0  0  0  0  0
   -3.2619   -1.1022   -1.0815 H   0  0  0  0  0  0  0  0  0  0  0  0
    2.6820    2.4691    0.3859 Cl  0  0  0  0  0  0  0  0  0  0  0  0
  2  3  3  0  0  0  0
  1  2  1  0  0  0  0
  5  6  1  0  0  0  0
  5  7  1  0  0  0  0
  5  8  1  0  0  0  0
  4  5  1  0  0  0  0
  1  4  1  0  0  0  0
  9 11  1  0  0  0  0
 10 11  1  0  0  0  0
 12  9  1  0  0  0  0
 12 13  1  0  0  0  0
 13 10  1  0  0  0  0
 14 13  1  0  0  0  0
 15 13  1  0  0  0  0
  1 11  1  0  0  0  0
 16 17  1  0  0  0  0
 16 18  1  0  0  0  0
 16 19  1  0  0  0  0
 16 20  1  0  0  0  0
 17 21  1  0  0  0  0
 17 22  1  0  0  0  0
 12 17  1  0  0  0  0
 23 24  1  0  0  0  0
 24 25  1  0  0  0  0
 25 26  1  0  0  0  0
 25 27  1  0  0  0  0
 25 28  1  0  0  0  0
 23 29  1  0  0  0  0
 23 30  1  0  0  0  0
 23 31  1  0  0  0  0
 24 32  1  0  0  0  0
  9 24  1  0  0  0  0
 33 34  1  0  0  0  0
 34 35  1  0  0  0  0
 35 36  1  0  0  0  0
 35 37  1  0  0  0  0
 35 38  1  0  0  0  0
 33 39  1  0  0  0  0
 33 40  1  0  0  0  0
 33 41  1  0  0  0  0
 34 42  1  0  0  0  0
 10 34  1  0  0  0  0
 43 44  1  0  0  0  0
 43 45  1  0  0  0  0
 43 46  1  0  0  0  0
 43 47  1  0  0  0  0
 44 48  1  0  0  0  0
 44 49  1  0  0  0  0
 12 44  1  0  0  0  0
  1 50  1  0  0  0  0
M  END
> <PM6_ENERGY>
-477.141

> <UID>
HXHLMTAOGMPPIA-ZVDQLSQVNA-M

> <FITNESS>
1.14606

> <GCODE>
5825

> <GraphENC>
5825 72_1_0,80_65_1,95_17_1,88_67_1,115774_32_1,115606_33_1,115773_33_1,115617_32_1, 72_0_80_0_SINGLE_Xlig:0_Xlig:1,72_2_95_2_SINGLE_scaff:0_MImidazolidinylidene:1,72_1_88_0_SINGLE_Xlig:0_Xlig:1,95_4_115774_0_SINGLE_LImidazolidinylideneSubCS:0_SubRS:1,95_0_115606_0_SINGLE_LImidazolidinylideneSubNL:0_SubRM:1,95_1_115773_0_SINGLE_LImidazolidinylideneSubNL:0_SubRM:1,95_3_115617_0_SINGLE_LImidazolidinylideneSubCS:0_SubRS:1, SymmetricSet [symIds=[115606, 115773]] SymmetricSet [symIds=[115774, 115617]] 

> <GraphJson>
{
  "graphId": 5825,
  "gVertices": [
    {
      "lstAPs": [
        {
          "id": 152011,
          "atomPositionNumber": 0,
          "atomPositionNumberInMol": 0,
          "apClass": {
            "rule": "Xlig",
            "subClass": 0,
            "bndTyp": "SINGLE"
          },
          "dirVec": {
            "x": -2.3339,
            "y": -0.0087,
            "z": 0.8172
          }
        },
        {
          "id": 152012,
          "atomPositionNumber": 0,
          "atomPositionNumberInMol": 0,
          "apClass": {
            "rule": "Xlig",
            "subClass": 0,
            "bndTyp": "SINGLE"
          },
          "dirVec": {
            "x": 2.336,
            "y": -5.0E-4,
            "z": 0.829
          }
        },
        {
          "id": 152013,
          "atomPositionNumber": 0,
          "atomPositionNumberInMol": 0,
          "apClass": {
            "rule": "scaff",
            "subClass": 0,
            "bndTyp": "SINGLE"
          },
          "dirVec": {
            "x": -0.0095,
            "y": 0.0046,
            "z": -1.7113
          }
        }
      ],
      "lstSymAPs": [
        {
          "symIds": [
            0,
            1
          ]
        }
      ],
      "mol": {
        "atoms": [
          {
            "elSymbol": "Pt",
            "p3d": {
              "x": -0.0098,
              "y": 0.0049,
              "z": 0.6289
            }
          },
          {
            "elSymbol": "C",
            "p3d": {
              "x": -6.0E-4,
              "y": 0.0016,
              "z": 2.5609
            }
          },
          {
            "elSymbol": "O",
            "p3d": {
              "x": 0.0025,
              "y": -0.0041,
              "z": 3.6974
            }
          },
          {
            "elSymbol": "Du",
            "p3d": {
              "x": -0.007,
              "y": 1.0013,
              "z": 0.6372
            }
          },
          {
            "elSymbol": "Du",
            "p3d": {
              "x": -0.0014,
              "y": 0.9902,
              "z": 2.5698
            }
          }
        ],
        "bonds": [
          {
            "atomIds": [
              1,
              2
            ],
            "bo": "TRIPLE"
          },
          {
            "atomIds": [
              0,
              1
            ],
            "bo": "SINGLE"
          },
          {
            "atomIds": [
              3,
              0
            ],
            "bo": "SINGLE"
          },
          {
            "atomIds": [
              4,
              1
            ],
            "bo": "SINGLE"
          }
        ]
      },
      "vertexId": 72,
      "buildingBlockId": 0,
      "buildingBlockType": "SCAFFOLD",
      "isRCV": false,
      "properties": {
        "ATTACHMENT_POINTS": "1#Xlig:0:SINGLE:-2.3339%-0.0087%0.8172,Xlig:0:SINGLE:2.3360%-0.0005%0.8290,scaff:0:SINGLE:-0.0095%0.0046%-1.7113 "
      },
      "uniquefyingPropertyKeys": [],
      "allowedMutationTypes": [
        "DELETE",
        "EXTEND",
        "CHANGEBRANCH",
        "CHANGELINK",
        "ADDLINK",
        "DELETELINK",
        "DELETECHAIN"
      ],
      "vertexType": "MolecularFragment"
    },
    {
      "lstAPs": [
        {
          "id": 152014,
          "atomPositionNumber": 0,
          "atomPositionNumberInMol": 5,
          "apClass": {
            "rule": "Xlig",
            "subClass": 1,
            "bndTyp": "SINGLE"
          },
          "dirVec": {
            "x": -0.1753,
            "y": 0.0948,
            "z": -0.4464
          }
        }
      ],
      "lstSymAPs": [],
      "mol": {
        "atoms": [
          {
            "elSymbol": "O",
            "p3d": {
              "x": -0.3534,
              "y": 2.1044,
              "z": -0.7339
            }
          },
          {
            "elSymbol": "C",
            "p3d": {
              "x": -0.5345,
              "y": 2.7646,
              "z": 0.4801
            }
          },
          {
            "elSymbol": "H",
            "p3d": {
              "x": -0.3728,
              "y": 3.8337,
              "z": 0.2724
            }
          },
          {
            "elSymbol": "H",
            "p3d": {
              "x": 0.1816,
              "y": 2.4161,
              "z": 1.2384
            }
          },
          {
            "elSymbol": "H",
            "p3d": {
              "x": -1.553,
              "y": 2.6149,
              "z": 0.8489
            }
          }
        ],
        "bonds": [
          {
            "atomIds": [
              1,
              2
            ],
            "bo": "SINGLE"
          },
          {
            "atomIds": [
              1,
              3
            ],
            "bo": "SINGLE"
          },
          {
            "atomIds": [
              1,
              4
            ],
            "bo": "SINGLE"
          },
          {
            "atomIds": [
              0,
              1
            ],
            "bo": "SINGLE"
          }
        ]
      },
      "vertexId": 80,
      "buildingBlockId": 64,
      "buildingBlockType": "FRAGMENT",
      "isRCV": false,
      "properties": {
        "ATTACHMENT_POINTS": "1#Xlig:1:SINGLE:-0.1753%0.0948%-0.4464 "
      },
      "uniquefyingPropertyKeys": [],
      "allowedMutationTypes": [
        "DELETE",
        "EXTEND",
        "CHANGEBRANCH",
        "CHANGELINK",
        "ADDLINK",
        "DELETELINK",
        "DELETECHAIN"
      ],
      "vertexType": "MolecularFragment"
    },
    {
      "lstAPs": [
        {
          "id": 152015,
          "atomPositionNumber": 0,
          "atomPositionNumberInMol": 10,
          "apClass": {
            "rule": "LImidazolidinylideneSubNL",
            "subClass": 0,
            "bndTyp": "SINGLE"
          },
          "dirVec": {
            "x": 7.7897,
            "y": 6.0821,
            "z": 4.7152
          }
        },
        {
          "id": 152016,
          "atomPositionNumber": 1,
          "atomPositionNumberInMol": 11,
          "apClass": {
            "rule": "LImidazolidinylideneSubNL",
            "subClass": 0,
            "bndTyp": "SINGLE"
          },
          "dirVec": {
            "x": 9.2442,
            "y": 7.4469,
            "z": 0.1412
          }
        },
        {
          "id": 152017,
          "atomPositionNumber": 2,
          "atomPositionNumberInMol": 12,
          "apClass": {
            "rule": "MImidazolidinylidene",
            "subClass": 1,
            "bndTyp": "SINGLE"
          },
          "dirVec": {
            "x": 7.3678,
            "y": 8.8196,
            "z": 2.9474
          }
        },
        {
          "id": 152018,
          "atomPositionNumber": 3,
          "atomPositionNumberInMol": 13,
          "apClass": {
            "rule": "LImidazolidinylideneSubCS",
            "subClass": 0,
            "bndTyp": "SINGLE"
          },
          "dirVec": {
            "x": 8.0114,
            "y": 3.5478,
            "z": 2.786
          }
        },
        {
          "id": 152019,
          "atomPositionNumber": 3,
          "atomPositionNumberInMol": 13,
          "apClass": {
            "rule": "LImidazolidinylideneSubCS",
            "subClass": 0,
            "bndTyp": "SINGLE"
          },
          "dirVec": {
            "x": 10.1821,
            "y": 4.5337,
            "z": 3.5842
          }
        }
      ],
      "lstSymAPs": [
        {
          "symIds": [
            0,
            1
          ]
        },
        {
          "symIds": [
            3,
            4
          ]
        }
      ],
      "mol": {
        "atoms": [
          {
            "elSymbol": "N",
            "p3d": {
              "x": 8.1682,
              "y": 5.9859,
              "z": 3.3103
            }
          },
          {
            "elSymbol": "N",
            "p3d": {
              "x": 8.7358,
              "y": 6.6342,
              "z": 1.2983
            }
          },
          {
            "elSymbol": "C",
            "p3d": {
              "x": 8.1698,
              "y": 7.0264,
              "z": 2.4525
            }
          },
          {
            "elSymbol": "C",
            "p3d": {
              "x": 8.8997,
              "y": 4.8098,
              "z": 2.7919
            }
          },
          {
            "elSymbol": "C",
            "p3d": {
              "x": 9.1818,
              "y": 5.2321,
              "z": 1.3562
            }
          },
          {
            "elSymbol": "H",
            "p3d": {
              "x": 8.6243,
              "y": 4.6089,
              "z": 0.6707
            }
          },
          {
            "elSymbol": "H",
            "p3d": {
              "x": 10.2262,
              "y": 5.1361,
              "z": 1.0989
            }
          }
        ],
        "bonds": [
          {
            "atomIds": [
              0,
              2
            ],
            "bo": "SINGLE"
          },
          {
            "atomIds": [
              1,
              2
            ],
            "bo": "SINGLE"
          },
          {
            "atomIds": [
              3,
              0
            ],
            "bo": "SINGLE"
          },
          {
            "atomIds": [
              3,
              4
            ],
            "bo": "SINGLE"
          },
          {
            "atomIds": [
              4,
              1
            ],
            "bo": "SINGLE"
          },
          {
            "atomIds": [
              5,
              4
            ],
            "bo": "SINGLE"
          },
          {
            "atomIds": [
              6,
              4
            ],
            "bo": "SINGLE"
          }
        ]
      },
      "vertexId": 95,
      "buildingBlockId": 16,
      "buildingBlockType": "FRAGMENT",
      "isRCV": false,
      "properties": {
        "ATTACHMENT_POINTS": "1#LImidazolidinylideneSubNL:0:SINGLE:7.7897%6.0821%4.7152 2#LImidazolidinylideneSubNL:0:SINGLE:9.2442%7.4469%0.1412 3#MImidazolidinylidene:1:SINGLE:7.3678%8.8196%2.9474 4#LImidazolidinylideneSubCS:0:SINGLE:8.0114%3.5478%2.7860,LImidazolidinylideneSubCS:0:SINGLE:10.1821%4.5337%3.5842 "
      },
      "uniquefyingPropertyKeys": [],
      "allowedMutationTypes": [
        "DELETE",
        "EXTEND",
        "CHANGEBRANCH",
        "CHANGELINK",
        "ADDLINK",
        "DELETELINK",
        "DELETECHAIN"
      ],
      "vertexType": "MolecularFragment"
    },
    {
      "lstAPs": [
        {
          "id": 152020,
          "atomPositionNumber": 0,
          "atomPositionNumberInMol": 51,
          "apClass": {
            "rule": "Xlig",
            "subClass": 1,
            "bndTyp": "SINGLE"
          },
          "dirVec": {
            "x": -0.0053,
            "y": -0.0027,
            "z": 0.63
          }
        }
      ],
      "lstSymAPs": [],
      "mol": {
        "atoms": [
          {
            "elSymbol": "Cl",
            "p3d": {
              "x": 2.3243,
              "y": -0.0063,
              "z": 0.8189
            }
          }
        ],
        "bonds": []
      },
      "vertexId": 88,
      "buildingBlockId": 66,
      "buildingBlockType": "FRAGMENT",
      "isRCV": false,
      "properties": {
        "ATTACHMENT_POINTS": "1#Xlig:1:SINGLE:-0.0053%-0.0027%0.6300 "
      },
      "uniquefyingPropertyKeys": [],
      "allowedMutationTypes": [
        "DELETE",
        "EXTEND",
        "CHANGEBRANCH",
        "CHANGELINK",
        "ADDLINK",
        "DELETELINK",
        "DELETECHAIN"
      ],
      "vertexType": "MolecularFragment"
    },
    {
      "lstAPs": [
        {
          "id": 152063,
          "atomPositionNumber": 1,
          "atomPositionNumberInMol": 18,
          "apClass": {
            "rule": "SubRS",
            "subClass": 1,
            "bndTyp": "SINGLE"
          },
          "dirVec": {
            "x": 0.2985,
            "y": 0.384,
            "z": -0.6258
          }
        }
      ],
      "lstSymAPs": [],
      "mol": {
        "atoms": [
          {
            "elSymbol": "C",
            "p3d": {
              "x": -1.0244,
              "y": -0.2225,
              "z": 1.3991
            }
          },
          {
            "elSymbol": "C",
            "p3d": {
              "x": 0.3973,
              "y": -0.042,
              "z": 0.8195
            }
          },
          {
            "elSymbol": "H",
            "p3d": {
              "x": -1.5635,
              "y": -0.9908,
              "z": 0.8263
            }
          },
          {
            "elSymbol": "H",
            "p3d": {
              "x": -0.941,
              "y": -0.535,
              "z": 2.446
            }
          },
          {
            "elSymbol": "H",
            "p3d": {
              "x": -1.5586,
              "y": 0.7335,
              "z": 1.3382
            }
          },
          {
            "elSymbol": "H",
            "p3d": {
              "x": 0.9335,
              "y": 0.7221,
              "z": 1.4011
            }
          },
          {
            "elSymbol": "H",
            "p3d": {
              "x": 0.927,
              "y": -1.0102,
              "z": 0.9001
            }
          }
        ],
        "bonds": [
          {
            "atomIds": [
              0,
              1
            ],
            "bo": "SINGLE"
          },
          {
            "atomIds": [
              0,
              2
            ],
            "bo": "SINGLE"
          },
          {
            "atomIds": [
              0,
              3
            ],
            "bo": "SINGLE"
          },
          {
            "atomIds": [
              0,
              4
            ],
            "bo": "SINGLE"
          },
          {
            "atomIds": [
              1,
              5
            ],
            "bo": "SINGLE"
          },
          {
            "atomIds": [
              1,
              6
            ],
            "bo": "SINGLE"
          }
        ]
      },
      "vertexId": 115774,
      "buildingBlockId": 31,
      "buildingBlockType": "FRAGMENT",
      "isRCV": false,
      "properties": {
        "ATTACHMENT_POINTS": "2#SubRS:1:SINGLE:0.2985%0.3840%-0.6258 "
      },
      "uniquefyingPropertyKeys": [],
      "allowedMutationTypes": [
        "DELETE",
        "EXTEND",
        "CHANGEBRANCH",
        "CHANGELINK",
        "ADDLINK",
        "DELETELINK",
        "DELETECHAIN"
      ],
      "vertexType": "MolecularFragment"
    },
    {
      "lstAPs": [
        {
          "id": 152064,
          "atomPositionNumber": 1,
          "atomPositionNumberInMol": 25,
          "apClass": {
            "rule": "SubRM",
            "subClass": 1,
            "bndTyp": "SINGLE"
          },
          "dirVec": {
            "x": 0.2868,
            "y": 0.385,
            "z": -0.643
          }
        }
      ],
      "lstSymAPs": [],
      "mol": {
        "atoms": [
          {
            "elSymbol": "C",
            "p3d": {
              "x": 1.141,
              "y": 1.0262,
              "z": 1.6347
            }
          },
          {
            "elSymbol": "C",
            "p3d": {
              "x": 0.3967,
              "y": -0.0479,
              "z": 0.8227
            }
          },
          {
            "elSymbol": "C",
            "p3d": {
              "x": 1.1459,
              "y": -1.371,
              "z": 0.9201
            }
          },
          {
            "elSymbol": "H",
            "p3d": {
              "x": 2.1461,
              "y": -1.2583,
              "z": 0.4976
            }
          },
          {
            "elSymbol": "H",
            "p3d": {
              "x": 0.6013,
              "y": -2.1408,
              "z": 0.3461
            }
          },
          {
            "elSymbol": "H",
            "p3d": {
              "x": 1.2113,
              "y": -1.6946,
              "z": 1.9559
            }
          },
          {
            "elSymbol": "H",
            "p3d": {
              "x": 2.1541,
              "y": 1.1435,
              "z": 1.2119
            }
          },
          {
            "elSymbol": "H",
            "p3d": {
              "x": 0.6143,
              "y": 1.976,
              "z": 1.5626
            }
          },
          {
            "elSymbol": "H",
            "p3d": {
              "x": 1.2058,
              "y": 0.7088,
              "z": 2.6868
            }
          },
          {
            "elSymbol": "H",
            "p3d": {
              "x": -0.6215,
              "y": -0.1789,
              "z": 1.2377
            }
          }
        ],
        "bonds": [
          {
            "atomIds": [
              0,
              1
            ],
            "bo": "SINGLE"
          },
          {
            "atomIds": [
              1,
              2
            ],
            "bo": "SINGLE"
          },
          {
            "atomIds": [
              2,
              3
            ],
            "bo": "SINGLE"
          },
          {
            "atomIds": [
              2,
              4
            ],
            "bo": "SINGLE"
          },
          {
            "atomIds": [
              2,
              5
            ],
            "bo": "SINGLE"
          },
          {
            "atomIds": [
              0,
              6
            ],
            "bo": "SINGLE"
          },
          {
            "atomIds": [
              0,
              7
            ],
            "bo": "SINGLE"
          },
          {
            "atomIds": [
              0,
              8
            ],
            "bo": "SINGLE"
          },
          {
            "atomIds": [
              1,
              9
            ],
            "bo": "SINGLE"
          }
        ]
      },
      "vertexId": 115606,
      "buildingBlockId": 32,
      "buildingBlockType": "FRAGMENT",
      "isRCV": false,
      "properties": {
        "ATTACHMENT_POINTS": "2#SubRM:1:SINGLE:0.2868%0.3850%-0.6430 "
      },
      "uniquefyingPropertyKeys": [],
      "allowedMutationTypes": [
        "DELETE",
        "EXTEND",
        "CHANGEBRANCH",
        "CHANGELINK",
        "ADDLINK",
        "DELETELINK",
        "DELETECHAIN"
      ],
      "vertexType": "MolecularFragment"
    },
    {
      "lstAPs": [
        {
          "id": 152065,
          "atomPositionNumber": 1,
          "atomPositionNumberInMol": 35,
          "apClass": {
            "rule": "SubRM",
            "subClass": 1,
            "bndTyp": "SINGLE"
          },
          "dirVec": {
            "x": 0.2868,
            "y": 0.385,
            "z": -0.643
          }
        }
      ],
      "lstSymAPs": [],
      "mol": {
        "atoms": [
          {
            "elSymbol": "C",
            "p3d": {
              "x": 1.141,
              "y": 1.0262,
              "z": 1.6347
            }
          },
          {
            "elSymbol": "C",
            "p3d": {
              "x": 0.3967,
              "y": -0.0479,
              "z": 0.8227
            }
          },
          {
            "elSymbol": "C",
            "p3d": {
              "x": 1.1459,
              "y": -1.371,
              "z": 0.9201
            }
          },
          {
            "elSymbol": "H",
            "p3d": {
              "x": 2.1461,
              "y": -1.2583,
              "z": 0.4976
            }
          },
          {
            "elSymbol": "H",
            "p3d": {
              "x": 0.6013,
              "y": -2.1408,
              "z": 0.3461
            }
          },
          {
            "elSymbol": "H",
            "p3d": {
              "x": 1.2113,
              "y": -1.6946,
              "z": 1.9559
            }
          },
          {
            "elSymbol": "H",
            "p3d": {
              "x": 2.1541,
              "y": 1.1435,
              "z": 1.2119
            }
          },
          {
            "elSymbol": "H",
            "p3d": {
              "x": 0.6143,
              "y": 1.976,
              "z": 1.5626
            }
          },
          {
            "elSymbol": "H",
            "p3d": {
              "x": 1.2058,
              "y": 0.7088,
              "z": 2.6868
            }
          },
          {
            "elSymbol": "H",
            "p3d": {
              "x": -0.6215,
              "y": -0.1789,
              "z": 1.2377
            }
          }
        ],
        "bonds": [
          {
            "atomIds": [
              0,
              1
            ],
            "bo": "SINGLE"
          },
          {
            "atomIds": [
              1,
              2
            ],
            "bo": "SINGLE"
          },
          {
            "atomIds": [
              2,
              3
            ],
            "bo": "SINGLE"
          },
          {
            "atomIds": [
              2,
              4
            ],
            "bo": "SINGLE"
          },
          {
            "atomIds": [
              2,
              5
            ],
            "bo": "SINGLE"
          },
          {
            "atomIds": [
              0,
              6
            ],
            "bo": "SINGLE"
          },
          {
            "atomIds": [
              0,
              7
            ],
            "bo": "SINGLE"
          },
          {
            "atomIds": [
              0,
              8
            ],
            "bo": "SINGLE"
          },
          {
            "atomIds": [
              1,
              9
            ],
            "bo": "SINGLE"
          }
        ]
      },
      "vertexId": 115773,
      "buildingBlockId": 32,
      "buildingBlockType": "FRAGMENT",
      "isRCV": false,
      "properties": {
        "ATTACHMENT_POINTS": "2#SubRM:1:SINGLE:0.2868%0.3850%-0.6430 "
      },
      "uniquefyingPropertyKeys": [],
      "allowedMutationTypes": [
        "DELETE",
        "EXTEND",
        "CHANGEBRANCH",
        "CHANGELINK",
        "ADDLINK",
        "DELETELINK",
        "DELETECHAIN"
      ],
      "vertexType": "MolecularFragment"
    },
    {
      "lstAPs": [
        {
          "id": 152066,
          "atomPositionNumber": 1,
          "atomPositionNumberInMol": 45,
          "apClass": {
            "rule": "SubRS",
            "subClass": 1,
            "bndTyp": "SINGLE"
          },
          "dirVec": {
            "x": 0.2985,
            "y": 0.384,
            "z": -0.6258
          }
        }
      ],
      "lstSymAPs": [],
      "mol": {
        "atoms": [
          {
            "elSymbol": "C",
            "p3d": {
              "x": -1.0244,
              "y": -0.2225,
              "z": 1.3991
            }
          },
          {
            "elSymbol": "C",
            "p3d": {
              "x": 0.3973,
              "y": -0.042,
              "z": 0.8195
            }
          },
          {
            "elSymbol": "H",
            "p3d": {
              "x": -1.5635,
              "y": -0.9908,
              "z": 0.8263
            }
          },
          {
            "elSymbol": "H",
            "p3d": {
              "x": -0.941,
              "y": -0.535,
              "z": 2.446
            }
          },
          {
            "elSymbol": "H",
            "p3d": {
              "x": -1.5586,
              "y": 0.7335,
              "z": 1.3382
            }
          },
          {
            "elSymbol": "H",
            "p3d": {
              "x": 0.9335,
              "y": 0.7221,
              "z": 1.4011
            }
          },
          {
            "elSymbol": "H",
            "p3d": {
              "x": 0.927,
              "y": -1.0102,
              "z": 0.9001
            }
          }
        ],
        "bonds": [
          {
            "atomIds": [
              0,
              1
            ],
            "bo": "SINGLE"
          },
          {
            "atomIds": [
              0,
              2
            ],
            "bo": "SINGLE"
          },
          {
            "atomIds": [
              0,
              3
            ],
            "bo": "SINGLE"
          },
          {
            "atomIds": [
              0,
              4
            ],
            "bo": "SINGLE"
          },
          {
            "atomIds": [
              1,
              5
            ],
            "bo": "SINGLE"
          },
          {
            "atomIds": [
              1,
              6
            ],
            "bo": "SINGLE"
          }
        ]
      },
      "vertexId": 115617,
      "buildingBlockId": 31,
      "buildingBlockType": "FRAGMENT",
      "isRCV": false,
      "properties": {
        "ATTACHMENT_POINTS": "2#SubRS:1:SINGLE:0.2985%0.3840%-0.6258 "
      },
      "uniquefyingPropertyKeys": [],
      "allowedMutationTypes": [
        "DELETE",
        "EXTEND",
        "CHANGEBRANCH",
        "CHANGELINK",
        "ADDLINK",
        "DELETELINK",
        "DELETECHAIN"
      ],
      "vertexType": "MolecularFragment"
    }
  ],
  "gEdges": [
    {
      "srcAPID": 152011,
      "trgAPID": 152014,
      "bondType": "SINGLE"
    },
    {
      "srcAPID": 152013,
      "trgAPID": 152017,
      "bondType": "SINGLE"
    },
    {
      "srcAPID": 152012,
      "trgAPID": 152020,
      "bondType": "SINGLE"
    },
    {
      "srcAPID": 152019,
      "trgAPID": 152063,
      "bondType": "SINGLE"
    },
    {
      "srcAPID": 152015,
      "trgAPID": 152064,
      "bondType": "SINGLE"
    },
    {
      "srcAPID": 152016,
      "trgAPID": 152065,
      "bondType": "SINGLE"
    },
    {
      "srcAPID": 152018,
      "trgAPID": 152066,
      "bondType": "SINGLE"
    }
  ],
  "gRings": [],
  "symVertices": [
    {
      "symIds": [
        115606,
        115773
      ]
    },
    {
      "symIds": [
        115774,
        115617
      ]
    }
  ]
}

> <SMILES>
[Pt](C#O)(OC([H])([H])[H])([C]1N(C(C(N1C(C([H])([H])[H])(C([H])([H])[H])[H])([H])[H])(C(C([H])([H])[H])([H])[H])C(C([H])([H])[H])([H])[H])C(C([H])([H])[H])(C([H])([H])[H])[H])Cl

$$$$
