M00008242
  CDK     04222211393D

 33 34  0  0  0  0  0  0  0  0999 V2000
   -2.0448   -0.3585   -1.1060 Pt  0  0  0  0  0  0  0  0  0  0  0  0
   -3.9664   -0.5417   -1.4768 C   0  0  0  0  0  0  0  0  0  0  0  0
   -5.0812   -0.6457   -1.6846 O   0  0  0  0  0  0  0  0  0  0  0  0
   -2.4399    1.8749   -1.6793 S   0  0  0  0  0  0  0  0  0  0  0  0
   -2.2446    2.5986   -0.0283 C   0  0  0  0  0  0  0  0  0  0  0  0
   -1.1969    2.8748    0.1482 H   0  0  0  0  0  0  0  0  0  0  0  0
   -2.5712    1.9040    0.7524 H   0  0  0  0  0  0  0  0  0  0  0  0
   -2.8564    3.5065    0.0373 H   0  0  0  0  0  0  0  0  0  0  0  0
    0.1481   -0.1671   -0.7647 P   0  0  0  0  0  0  0  0  0  0  0  0
    0.7207    1.3312   -0.1376 O   0  0  0  0  0  0  0  0  0  0  0  0
    0.8528   -1.1905    0.4278 O   0  0  0  0  0  0  0  0  0  0  0  0
    1.5880    1.0123    0.9082 C   0  0  0  0  0  0  0  0  0  0  0  0
    1.6604   -0.3720    1.2188 C   0  0  0  0  0  0  0  0  0  0  0  0
    2.4636   -0.8455    2.2413 C   0  0  0  0  0  0  0  0  0  0  0  0
    3.2070    0.1118    2.9584 C   0  0  0  0  0  0  0  0  0  0  0  0
    3.1359    1.4720    2.6532 C   0  0  0  0  0  0  0  0  0  0  0  0
    2.3174    1.9535    1.6133 C   0  0  0  0  0  0  0  0  0  0  0  0
    3.7251    2.1866    3.2300 H   0  0  0  0  0  0  0  0  0  0  0  0
    2.2561    3.0132    1.3729 H   0  0  0  0  0  0  0  0  0  0  0  0
    0.0327   -0.7236   -3.4219 C   0  0  0  0  0  0  0  0  0  0  0  0
    1.0813   -0.4738   -2.3493 C   0  0  0  0  0  0  0  0  0  0  0  0
   -0.6363    0.1401   -3.5914 H   0  0  0  0  0  0  0  0  0  0  0  0
    0.5172   -0.9204   -4.3916 H   0  0  0  0  0  0  0  0  0  0  0  0
   -0.6015   -1.6066   -3.2194 H   0  0  0  0  0  0  0  0  0  0  0  0
    1.7671   -1.3431   -2.2432 H   0  0  0  0  0  0  0  0  0  0  0  0
    1.7259    0.3948   -2.6068 H   0  0  0  0  0  0  0  0  0  0  0  0
    2.5131   -1.9070    2.4769 H   0  0  0  0  0  0  0  0  0  0  0  0
    3.8513   -0.2266    3.7714 H   0  0  0  0  0  0  0  0  0  0  0  0
   -2.1914   -2.6554   -0.6868 S   0  0  0  0  0  0  0  0  0  0  0  0
   -1.9662   -2.5985    1.1115 C   0  0  0  0  0  0  0  0  0  0  0  0
   -2.4844   -3.4535    1.5626 H   0  0  0  0  0  0  0  0  0  0  0  0
   -2.3817   -1.6788    1.5361 H   0  0  0  0  0  0  0  0  0  0  0  0
   -0.9009   -2.6661    1.3674 H   0  0  0  0  0  0  0  0  0  0  0  0
  2  3  3  0  0  0  0
  1  2  1  0  0  0  0
  5  6  1  0  0  0  0
  5  7  1  0  0  0  0
  5  8  1  0  0  0  0
  4  5  1  0  0  0  0
  1  4  1  0  0  0  0
 10  9  1  0  0  0  0
 11  9  1  0  0  0  0
 12 10  1  0  0  0  0
 12 13  2  0  0  0  0
 13 11  1  0  0  0  0
 14 13  1  0  0  0  0
 15 14  2  0  0  0  0
 16 15  1  0  0  0  0
 16 17  2  0  0  0  0
 17 12  1  0  0  0  0
  1  9  1  0  0  0  0
 16 18  1  0  0  0  0
 17 19  1  0  0  0  0
 20 21  1  0  0  0  0
 20 22  1  0  0  0  0
 20 23  1  0  0  0  0
 20 24  1  0  0  0  0
 21 25  1  0  0  0  0
 21 26  1  0  0  0  0
  9 21  1  0  0  0  0
 14 27  1  0  0  0  0
 15 28  1  0  0  0  0
 30 31  1  0  0  0  0
 30 32  1  0  0  0  0
 30 33  1  0  0  0  0
 29 30  1  0  0  0  0
  1 29  1  0  0  0  0
M  END
> <PM6_ENERGY>
-415.229

> <UID>
HGQWJTNWOSLYTK-WLYZQMAYNA-L

> <FITNESS>
1.13876

> <GCODE>
9155

> <GraphENC>
9155 72_1_0,79_64_1,121_61_1,85_64_1,185294_1_2,185297_1_2,185277_32_1,185288_1_2,185291_1_2, 72_0_79_0_SINGLE_Xlig:0_Xlig:1,72_2_121_1_SINGLE_scaff:0_MPhosphonite:1,72_1_85_0_SINGLE_Xlig:0_Xlig:1,121_4_185294_0_SINGLE_sArCl:1_hyd:1,121_5_185297_0_SINGLE_sArCl:1_hyd:1,121_0_185277_0_SINGLE_LPhosphoniteSubR:0_SubRS:1,121_2_185288_0_SINGLE_sArCl:1_hyd:1,121_3_185291_0_SINGLE_sArCl:1_hyd:1, 

> <GraphJson>
{
  "graphId": 9155,
  "gVertices": [
    {
      "lstAPs": [
        {
          "id": 242282,
          "atomPositionNumber": 0,
          "atomPositionNumberInMol": 0,
          "apClass": {
            "rule": "Xlig",
            "subClass": 0,
            "bndTyp": "SINGLE"
          },
          "dirVec": {
            "x": -2.3339,
            "y": -0.0087,
            "z": 0.8172
          }
        },
        {
          "id": 242283,
          "atomPositionNumber": 0,
          "atomPositionNumberInMol": 0,
          "apClass": {
            "rule": "Xlig",
            "subClass": 0,
            "bndTyp": "SINGLE"
          },
          "dirVec": {
            "x": 2.336,
            "y": -5.0E-4,
            "z": 0.829
          }
        },
        {
          "id": 242284,
          "atomPositionNumber": 0,
          "atomPositionNumberInMol": 0,
          "apClass": {
            "rule": "scaff",
            "subClass": 0,
            "bndTyp": "SINGLE"
          },
          "dirVec": {
            "x": -0.0095,
            "y": 0.0046,
            "z": -1.7113
          }
        }
      ],
      "lstSymAPs": [
        {
          "symIds": [
            0,
            1
          ]
        }
      ],
      "mol": {
        "atoms": [
          {
            "elSymbol": "Pt",
            "p3d": {
              "x": -0.0098,
              "y": 0.0049,
              "z": 0.6289
            }
          },
          {
            "elSymbol": "C",
            "p3d": {
              "x": -6.0E-4,
              "y": 0.0016,
              "z": 2.5609
            }
          },
          {
            "elSymbol": "O",
            "p3d": {
              "x": 0.0025,
              "y": -0.0041,
              "z": 3.6974
            }
          },
          {
            "elSymbol": "Du",
            "p3d": {
              "x": -0.007,
              "y": 1.0013,
              "z": 0.6372
            }
          },
          {
            "elSymbol": "Du",
            "p3d": {
              "x": -0.0014,
              "y": 0.9902,
              "z": 2.5698
            }
          }
        ],
        "bonds": [
          {
            "atomIds": [
              1,
              2
            ],
            "bo": "TRIPLE"
          },
          {
            "atomIds": [
              0,
              1
            ],
            "bo": "SINGLE"
          },
          {
            "atomIds": [
              3,
              0
            ],
            "bo": "SINGLE"
          },
          {
            "atomIds": [
              4,
              1
            ],
            "bo": "SINGLE"
          }
        ]
      },
      "vertexId": 72,
      "buildingBlockId": 0,
      "buildingBlockType": "SCAFFOLD",
      "isRCV": false,
      "properties": {
        "ATTACHMENT_POINTS": "1#Xlig:0:SINGLE:-2.3339%-0.0087%0.8172,Xlig:0:SINGLE:2.3360%-0.0005%0.8290,scaff:0:SINGLE:-0.0095%0.0046%-1.7113 "
      },
      "uniquefyingPropertyKeys": [],
      "allowedMutationTypes": [
        "DELETE",
        "EXTEND",
        "CHANGEBRANCH",
        "CHANGELINK",
        "ADDLINK",
        "DELETELINK",
        "DELETECHAIN"
      ],
      "vertexType": "MolecularFragment"
    },
    {
      "lstAPs": [
        {
          "id": 242285,
          "atomPositionNumber": 0,
          "atomPositionNumberInMol": 5,
          "apClass": {
            "rule": "Xlig",
            "subClass": 1,
            "bndTyp": "SINGLE"
          },
          "dirVec": {
            "x": -0.102,
            "y": 0.0185,
            "z": -1.0265
          }
        }
      ],
      "lstSymAPs": [],
      "mol": {
        "atoms": [
          {
            "elSymbol": "S",
            "p3d": {
              "x": -0.3267,
              "y": 2.3403,
              "z": -1.0022
            }
          },
          {
            "elSymbol": "C",
            "p3d": {
              "x": -0.626,
              "y": 2.4866,
              "z": 0.7805
            }
          },
          {
            "elSymbol": "H",
            "p3d": {
              "x": 0.1766,
              "y": 3.089,
              "z": 1.2414
            }
          },
          {
            "elSymbol": "H",
            "p3d": {
              "x": -0.651,
              "y": 1.5065,
              "z": 1.2643
            }
          },
          {
            "elSymbol": "H",
            "p3d": {
              "x": -1.5658,
              "y": 2.981,
              "z": 0.9515
            }
          }
        ],
        "bonds": [
          {
            "atomIds": [
              1,
              2
            ],
            "bo": "SINGLE"
          },
          {
            "atomIds": [
              1,
              3
            ],
            "bo": "SINGLE"
          },
          {
            "atomIds": [
              1,
              4
            ],
            "bo": "SINGLE"
          },
          {
            "atomIds": [
              0,
              1
            ],
            "bo": "SINGLE"
          }
        ]
      },
      "vertexId": 79,
      "buildingBlockId": 63,
      "buildingBlockType": "FRAGMENT",
      "isRCV": false,
      "properties": {
        "ATTACHMENT_POINTS": "1#Xlig:1:SINGLE:-0.1020%0.0185%-1.0265 "
      },
      "uniquefyingPropertyKeys": [],
      "allowedMutationTypes": [
        "DELETE",
        "EXTEND",
        "CHANGEBRANCH",
        "CHANGELINK",
        "ADDLINK",
        "DELETELINK",
        "DELETECHAIN"
      ],
      "vertexType": "MolecularFragment"
    },
    {
      "lstAPs": [
        {
          "id": 242286,
          "atomPositionNumber": 0,
          "atomPositionNumberInMol": 10,
          "apClass": {
            "rule": "LPhosphoniteSubR",
            "subClass": 0,
            "bndTyp": "SINGLE"
          },
          "dirVec": {
            "x": 4.4068,
            "y": 7.1514,
            "z": 3.225
          }
        },
        {
          "id": 242287,
          "atomPositionNumber": 0,
          "atomPositionNumberInMol": 10,
          "apClass": {
            "rule": "MPhosphonite",
            "subClass": 1,
            "bndTyp": "SINGLE"
          },
          "dirVec": {
            "x": 2.0992,
            "y": 9.8558,
            "z": 2.0523
          }
        },
        {
          "id": 242288,
          "atomPositionNumber": 5,
          "atomPositionNumberInMol": 15,
          "apClass": {
            "rule": "sArCl",
            "subClass": 1,
            "bndTyp": "SINGLE"
          },
          "dirVec": {
            "x": 0.6858,
            "y": 4.225,
            "z": 0.5361
          }
        },
        {
          "id": 242289,
          "atomPositionNumber": 6,
          "atomPositionNumberInMol": 16,
          "apClass": {
            "rule": "sArCl",
            "subClass": 1,
            "bndTyp": "SINGLE"
          },
          "dirVec": {
            "x": -1.3527,
            "y": 2.6941,
            "z": 2.4126
          }
        },
        {
          "id": 242290,
          "atomPositionNumber": 7,
          "atomPositionNumberInMol": 17,
          "apClass": {
            "rule": "sArCl",
            "subClass": 1,
            "bndTyp": "SINGLE"
          },
          "dirVec": {
            "x": -1.5783,
            "y": 3.4734,
            "z": 5.4078
          }
        },
        {
          "id": 242291,
          "atomPositionNumber": 8,
          "atomPositionNumberInMol": 18,
          "apClass": {
            "rule": "sArCl",
            "subClass": 1,
            "bndTyp": "SINGLE"
          },
          "dirVec": {
            "x": 0.1066,
            "y": 5.8434,
            "z": 6.538
          }
        }
      ],
      "lstSymAPs": [
        {
          "symIds": [
            2,
            3,
            4,
            5
          ]
        }
      ],
      "mol": {
        "atoms": [
          {
            "elSymbol": "P",
            "p3d": {
              "x": 2.6785,
              "y": 7.6971,
              "z": 2.9618
            }
          },
          {
            "elSymbol": "O",
            "p3d": {
              "x": 1.8393,
              "y": 7.1782,
              "z": 4.337
            }
          },
          {
            "elSymbol": "O",
            "p3d": {
              "x": 2.0482,
              "y": 6.4774,
              "z": 1.9984
            }
          },
          {
            "elSymbol": "C",
            "p3d": {
              "x": 1.0897,
              "y": 6.0606,
              "z": 4.0384
            }
          },
          {
            "elSymbol": "C",
            "p3d": {
              "x": 1.2045,
              "y": 5.6797,
              "z": 2.7196
            }
          },
          {
            "elSymbol": "C",
            "p3d": {
              "x": 0.4857,
              "y": 4.6461,
              "z": 2.2048
            }
          },
          {
            "elSymbol": "C",
            "p3d": {
              "x": -0.3938,
              "y": 3.9649,
              "z": 3.0541
            }
          },
          {
            "elSymbol": "C",
            "p3d": {
              "x": -0.4923,
              "y": 4.3317,
              "z": 4.3806
            }
          },
          {
            "elSymbol": "C",
            "p3d": {
              "x": 0.2319,
              "y": 5.401,
              "z": 4.8933
            }
          }
        ],
        "bonds": [
          {
            "atomIds": [
              1,
              0
            ],
            "bo": "SINGLE"
          },
          {
            "atomIds": [
              2,
              0
            ],
            "bo": "SINGLE"
          },
          {
            "atomIds": [
              3,
              1
            ],
            "bo": "SINGLE"
          },
          {
            "atomIds": [
              3,
              4
            ],
            "bo": "DOUBLE"
          },
          {
            "atomIds": [
              4,
              2
            ],
            "bo": "SINGLE"
          },
          {
            "atomIds": [
              5,
              4
            ],
            "bo": "SINGLE"
          },
          {
            "atomIds": [
              6,
              5
            ],
            "bo": "DOUBLE"
          },
          {
            "atomIds": [
              7,
              6
            ],
            "bo": "SINGLE"
          },
          {
            "atomIds": [
              7,
              8
            ],
            "bo": "DOUBLE"
          },
          {
            "atomIds": [
              8,
              3
            ],
            "bo": "SINGLE"
          }
        ]
      },
      "vertexId": 121,
      "buildingBlockId": 60,
      "buildingBlockType": "FRAGMENT",
      "isRCV": false,
      "properties": {
        "ATTACHMENT_POINTS": "1#LPhosphoniteSubR:0:SINGLE:4.4068%7.1514%3.2250,MPhosphonite:1:SINGLE:2.0992%9.8558%2.0523 6#sArCl:1:SINGLE:0.6858%4.2250%0.5361 7#sArCl:1:SINGLE:-1.3527%2.6941%2.4126 8#sArCl:1:SINGLE:-1.5783%3.4734%5.4078 9#sArCl:1:SINGLE:0.1066%5.8434%6.5380 "
      },
      "uniquefyingPropertyKeys": [],
      "allowedMutationTypes": [
        "DELETE",
        "EXTEND",
        "CHANGEBRANCH",
        "CHANGELINK",
        "ADDLINK",
        "DELETELINK",
        "DELETECHAIN"
      ],
      "vertexType": "MolecularFragment"
    },
    {
      "lstAPs": [
        {
          "id": 242292,
          "atomPositionNumber": 0,
          "atomPositionNumberInMol": 30,
          "apClass": {
            "rule": "Xlig",
            "subClass": 1,
            "bndTyp": "SINGLE"
          },
          "dirVec": {
            "x": -0.102,
            "y": 0.0185,
            "z": -1.0265
          }
        }
      ],
      "lstSymAPs": [],
      "mol": {
        "atoms": [
          {
            "elSymbol": "S",
            "p3d": {
              "x": -0.3267,
              "y": 2.3403,
              "z": -1.0022
            }
          },
          {
            "elSymbol": "C",
            "p3d": {
              "x": -0.626,
              "y": 2.4866,
              "z": 0.7805
            }
          },
          {
            "elSymbol": "H",
            "p3d": {
              "x": 0.1766,
              "y": 3.089,
              "z": 1.2414
            }
          },
          {
            "elSymbol": "H",
            "p3d": {
              "x": -0.651,
              "y": 1.5065,
              "z": 1.2643
            }
          },
          {
            "elSymbol": "H",
            "p3d": {
              "x": -1.5658,
              "y": 2.981,
              "z": 0.9515
            }
          }
        ],
        "bonds": [
          {
            "atomIds": [
              1,
              2
            ],
            "bo": "SINGLE"
          },
          {
            "atomIds": [
              1,
              3
            ],
            "bo": "SINGLE"
          },
          {
            "atomIds": [
              1,
              4
            ],
            "bo": "SINGLE"
          },
          {
            "atomIds": [
              0,
              1
            ],
            "bo": "SINGLE"
          }
        ]
      },
      "vertexId": 85,
      "buildingBlockId": 63,
      "buildingBlockType": "FRAGMENT",
      "isRCV": false,
      "properties": {
        "ATTACHMENT_POINTS": "1#Xlig:1:SINGLE:-0.1020%0.0185%-1.0265 "
      },
      "uniquefyingPropertyKeys": [],
      "allowedMutationTypes": [
        "DELETE",
        "EXTEND",
        "CHANGEBRANCH",
        "CHANGELINK",
        "ADDLINK",
        "DELETELINK",
        "DELETECHAIN"
      ],
      "vertexType": "MolecularFragment"
    },
    {
      "lstAPs": [
        {
          "id": 242337,
          "atomPositionNumber": 0,
          "atomPositionNumberInMol": 19,
          "apClass": {
            "rule": "hyd",
            "subClass": 1,
            "bndTyp": "SINGLE"
          },
          "dirVec": {
            "x": 0.4589,
            "y": -1.751,
            "z": 0.3869
          }
        }
      ],
      "lstSymAPs": [],
      "mol": {
        "atoms": [
          {
            "elSymbol": "H",
            "p3d": {
              "x": 0.1925,
              "y": -2.5024,
              "z": 1.1483
            }
          }
        ],
        "bonds": []
      },
      "vertexId": 185294,
      "buildingBlockId": 0,
      "buildingBlockType": "CAP",
      "isRCV": false,
      "properties": {
        "ATTACHMENT_POINTS": "1#hyd:1:SINGLE:0.4589%-1.7510%0.3869 "
      },
      "uniquefyingPropertyKeys": [],
      "allowedMutationTypes": [
        "DELETE",
        "EXTEND",
        "CHANGEBRANCH",
        "CHANGELINK",
        "ADDLINK",
        "DELETELINK",
        "DELETECHAIN"
      ],
      "vertexType": "MolecularFragment"
    },
    {
      "lstAPs": [
        {
          "id": 242338,
          "atomPositionNumber": 0,
          "atomPositionNumberInMol": 20,
          "apClass": {
            "rule": "hyd",
            "subClass": 1,
            "bndTyp": "SINGLE"
          },
          "dirVec": {
            "x": 0.4589,
            "y": -1.751,
            "z": 0.3869
          }
        }
      ],
      "lstSymAPs": [],
      "mol": {
        "atoms": [
          {
            "elSymbol": "H",
            "p3d": {
              "x": 0.1925,
              "y": -2.5024,
              "z": 1.1483
            }
          }
        ],
        "bonds": []
      },
      "vertexId": 185297,
      "buildingBlockId": 0,
      "buildingBlockType": "CAP",
      "isRCV": false,
      "properties": {
        "ATTACHMENT_POINTS": "1#hyd:1:SINGLE:0.4589%-1.7510%0.3869 "
      },
      "uniquefyingPropertyKeys": [],
      "allowedMutationTypes": [
        "DELETE",
        "EXTEND",
        "CHANGEBRANCH",
        "CHANGELINK",
        "ADDLINK",
        "DELETELINK",
        "DELETECHAIN"
      ],
      "vertexType": "MolecularFragment"
    },
    {
      "lstAPs": [
        {
          "id": 242339,
          "atomPositionNumber": 1,
          "atomPositionNumberInMol": 22,
          "apClass": {
            "rule": "SubRS",
            "subClass": 1,
            "bndTyp": "SINGLE"
          },
          "dirVec": {
            "x": 0.2985,
            "y": 0.384,
            "z": -0.6258
          }
        }
      ],
      "lstSymAPs": [],
      "mol": {
        "atoms": [
          {
            "elSymbol": "C",
            "p3d": {
              "x": -1.0244,
              "y": -0.2225,
              "z": 1.3991
            }
          },
          {
            "elSymbol": "C",
            "p3d": {
              "x": 0.3973,
              "y": -0.042,
              "z": 0.8195
            }
          },
          {
            "elSymbol": "H",
            "p3d": {
              "x": -1.5635,
              "y": -0.9908,
              "z": 0.8263
            }
          },
          {
            "elSymbol": "H",
            "p3d": {
              "x": -0.941,
              "y": -0.535,
              "z": 2.446
            }
          },
          {
            "elSymbol": "H",
            "p3d": {
              "x": -1.5586,
              "y": 0.7335,
              "z": 1.3382
            }
          },
          {
            "elSymbol": "H",
            "p3d": {
              "x": 0.9335,
              "y": 0.7221,
              "z": 1.4011
            }
          },
          {
            "elSymbol": "H",
            "p3d": {
              "x": 0.927,
              "y": -1.0102,
              "z": 0.9001
            }
          }
        ],
        "bonds": [
          {
            "atomIds": [
              0,
              1
            ],
            "bo": "SINGLE"
          },
          {
            "atomIds": [
              0,
              2
            ],
            "bo": "SINGLE"
          },
          {
            "atomIds": [
              0,
              3
            ],
            "bo": "SINGLE"
          },
          {
            "atomIds": [
              0,
              4
            ],
            "bo": "SINGLE"
          },
          {
            "atomIds": [
              1,
              5
            ],
            "bo": "SINGLE"
          },
          {
            "atomIds": [
              1,
              6
            ],
            "bo": "SINGLE"
          }
        ]
      },
      "vertexId": 185277,
      "buildingBlockId": 31,
      "buildingBlockType": "FRAGMENT",
      "isRCV": false,
      "properties": {
        "ATTACHMENT_POINTS": "2#SubRS:1:SINGLE:0.2985%0.3840%-0.6258 "
      },
      "uniquefyingPropertyKeys": [],
      "allowedMutationTypes": [
        "DELETE",
        "EXTEND",
        "CHANGEBRANCH",
        "CHANGELINK",
        "ADDLINK",
        "DELETELINK",
        "DELETECHAIN"
      ],
      "vertexType": "MolecularFragment"
    },
    {
      "lstAPs": [
        {
          "id": 242340,
          "atomPositionNumber": 0,
          "atomPositionNumberInMol": 28,
          "apClass": {
            "rule": "hyd",
            "subClass": 1,
            "bndTyp": "SINGLE"
          },
          "dirVec": {
            "x": 0.4589,
            "y": -1.751,
            "z": 0.3869
          }
        }
      ],
      "lstSymAPs": [],
      "mol": {
        "atoms": [
          {
            "elSymbol": "H",
            "p3d": {
              "x": 0.1925,
              "y": -2.5024,
              "z": 1.1483
            }
          }
        ],
        "bonds": []
      },
      "vertexId": 185288,
      "buildingBlockId": 0,
      "buildingBlockType": "CAP",
      "isRCV": false,
      "properties": {
        "ATTACHMENT_POINTS": "1#hyd:1:SINGLE:0.4589%-1.7510%0.3869 "
      },
      "uniquefyingPropertyKeys": [],
      "allowedMutationTypes": [
        "DELETE",
        "EXTEND",
        "CHANGEBRANCH",
        "CHANGELINK",
        "ADDLINK",
        "DELETELINK",
        "DELETECHAIN"
      ],
      "vertexType": "MolecularFragment"
    },
    {
      "lstAPs": [
        {
          "id": 242341,
          "atomPositionNumber": 0,
          "atomPositionNumberInMol": 29,
          "apClass": {
            "rule": "hyd",
            "subClass": 1,
            "bndTyp": "SINGLE"
          },
          "dirVec": {
            "x": 0.4589,
            "y": -1.751,
            "z": 0.3869
          }
        }
      ],
      "lstSymAPs": [],
      "mol": {
        "atoms": [
          {
            "elSymbol": "H",
            "p3d": {
              "x": 0.1925,
              "y": -2.5024,
              "z": 1.1483
            }
          }
        ],
        "bonds": []
      },
      "vertexId": 185291,
      "buildingBlockId": 0,
      "buildingBlockType": "CAP",
      "isRCV": false,
      "properties": {
        "ATTACHMENT_POINTS": "1#hyd:1:SINGLE:0.4589%-1.7510%0.3869 "
      },
      "uniquefyingPropertyKeys": [],
      "allowedMutationTypes": [
        "DELETE",
        "EXTEND",
        "CHANGEBRANCH",
        "CHANGELINK",
        "ADDLINK",
        "DELETELINK",
        "DELETECHAIN"
      ],
      "vertexType": "MolecularFragment"
    }
  ],
  "gEdges": [
    {
      "srcAPID": 242282,
      "trgAPID": 242285,
      "bondType": "SINGLE"
    },
    {
      "srcAPID": 242284,
      "trgAPID": 242287,
      "bondType": "SINGLE"
    },
    {
      "srcAPID": 242283,
      "trgAPID": 242292,
      "bondType": "SINGLE"
    },
    {
      "srcAPID": 242290,
      "trgAPID": 242337,
      "bondType": "SINGLE"
    },
    {
      "srcAPID": 242291,
      "trgAPID": 242338,
      "bondType": "SINGLE"
    },
    {
      "srcAPID": 242286,
      "trgAPID": 242339,
      "bondType": "SINGLE"
    },
    {
      "srcAPID": 242288,
      "trgAPID": 242340,
      "bondType": "SINGLE"
    },
    {
      "srcAPID": 242289,
      "trgAPID": 242341,
      "bondType": "SINGLE"
    }
  ],
  "gRings": [],
  "symVertices": []
}

> <SMILES>
[Pt](C#O)(SC([H])([H])[H])([P]1(OC2=C(O1)C(=C(C(=C2[H])[H])[H])[H])C(C([H])([H])[H])([H])[H])SC([H])([H])[H]

$$$$
