M00003607
  CDK     04222210003D

 49 51  0  0  0  0  0  0  0  0999 V2000
   -2.9376    0.0451    0.0072 Pt  0  0  0  0  0  0  0  0  0  0  0  0
   -4.8720    0.0372   -0.2446 C   0  0  0  0  0  0  0  0  0  0  0  0
   -5.9987   -0.0077   -0.4363 O   0  0  0  0  0  0  0  0  0  0  0  0
   -3.3513    1.9304    0.6494 O   0  0  0  0  0  0  0  0  0  0  0  0
   -2.5102    2.8711    0.0168 C   0  0  0  0  0  0  0  0  0  0  0  0
   -2.9676    3.8511    0.2120 H   0  0  0  0  0  0  0  0  0  0  0  0
   -2.4692    2.6787   -1.0622 H   0  0  0  0  0  0  0  0  0  0  0  0
   -1.5052    2.8281    0.4631 H   0  0  0  0  0  0  0  0  0  0  0  0
   -0.7148   -0.2726    0.1326 P   0  0  0  0  0  0  0  0  0  0  0  0
    0.1173    1.1778    0.3873 O   0  0  0  0  0  0  0  0  0  0  0  0
   -0.1029   -0.7875   -1.3369 O   0  0  0  0  0  0  0  0  0  0  0  0
    1.5500    1.1074    0.2209 C   0  0  0  0  0  0  0  0  0  0  0  0
    1.3343   -0.7162   -1.4984 C   0  0  0  0  0  0  0  0  0  0  0  0
    1.9187    0.6816   -1.2174 C   0  0  0  0  0  0  0  0  0  0  0  0
    3.4595    0.6539   -1.3739 C   0  0  0  0  0  0  0  0  0  0  0  0
    1.4101    1.7311   -2.2373 C   0  0  0  0  0  0  0  0  0  0  0  0
    2.6222    2.5641   -2.6876 C   0  0  0  0  0  0  0  0  0  0  0  0
    3.8529    2.0307   -1.9325 C   0  0  0  0  0  0  0  0  0  0  0  0
    1.8517    2.1567    0.4231 H   0  0  0  0  0  0  0  0  0  0  0  0
    1.8091   -1.5103   -0.8814 H   0  0  0  0  0  0  0  0  0  0  0  0
    3.7667   -0.1404   -2.0787 H   0  0  0  0  0  0  0  0  0  0  0  0
    0.9244    1.2416   -3.0998 H   0  0  0  0  0  0  0  0  0  0  0  0
    2.4665    3.6368   -2.4820 H   0  0  0  0  0  0  0  0  0  0  0  0
    4.1342    2.7172   -1.1143 H   0  0  0  0  0  0  0  0  0  0  0  0
    1.9929    0.4577    0.9971 H   0  0  0  0  0  0  0  0  0  0  0  0
    1.4306   -0.9974   -2.5693 H   0  0  0  0  0  0  0  0  0  0  0  0
    3.9755    0.4356   -0.4256 H   0  0  0  0  0  0  0  0  0  0  0  0
    0.6258    2.3686   -1.7872 H   0  0  0  0  0  0  0  0  0  0  0  0
    2.7660    2.4802   -3.7790 H   0  0  0  0  0  0  0  0  0  0  0  0
    4.7336    1.9605   -2.5922 H   0  0  0  0  0  0  0  0  0  0  0  0
   -0.1997   -1.3477    1.5331 C   0  0  0  0  0  0  0  0  0  0  0  0
    0.5671   -2.9149    3.7076 C   0  0  0  0  0  0  0  0  0  0  0  0
   -0.9768   -1.3190    2.7023 C   0  0  0  0  0  0  0  0  0  0  0  0
    0.9234   -2.1734    1.4360 C   0  0  0  0  0  0  0  0  0  0  0  0
    1.3143   -2.9558    2.5220 C   0  0  0  0  0  0  0  0  0  0  0  0
   -0.5640   -2.1089    3.7974 C   0  0  0  0  0  0  0  0  0  0  0  0
    1.5097   -2.2340    0.5104 H   0  0  0  0  0  0  0  0  0  0  0  0
    2.1860   -3.6015    2.4500 H   0  0  0  0  0  0  0  0  0  0  0  0
   -1.1458   -2.0952    4.7182 H   0  0  0  0  0  0  0  0  0  0  0  0
    0.8710   -3.5237    4.5600 H   0  0  0  0  0  0  0  0  0  0  0  0
   -2.2328   -0.5216    2.8382 C   0  0  0  0  0  0  0  0  0  0  0  0
   -3.0554   -0.9750    2.2403 H   0  0  0  0  0  0  0  0  0  0  0  0
   -2.1471    0.5403    2.5317 H   0  0  0  0  0  0  0  0  0  0  0  0
   -2.6004   -0.4864    3.8746 H   0  0  0  0  0  0  0  0  0  0  0  0
   -2.3780   -1.8929   -0.4007 O   0  0  0  0  0  0  0  0  0  0  0  0
   -2.7785   -2.3098   -1.6904 C   0  0  0  0  0  0  0  0  0  0  0  0
   -2.3162   -3.2956   -1.8377 H   0  0  0  0  0  0  0  0  0  0  0  0
   -2.4179   -1.6037   -2.4489 H   0  0  0  0  0  0  0  0  0  0  0  0
   -3.8714   -2.3924   -1.7171 H   0  0  0  0  0  0  0  0  0  0  0  0
  2  3  3  0  0  0  0
  1  2  1  0  0  0  0
  5  6  1  0  0  0  0
  5  7  1  0  0  0  0
  5  8  1  0  0  0  0
  4  5  1  0  0  0  0
  1  4  1  0  0  0  0
 10  9  1  0  0  0  0
 11  9  1  0  0  0  0
 12 10  1  0  0  0  0
 13 11  1  0  0  0  0
 13 14  1  0  0  0  0
 14 12  1  0  0  0  0
 15 14  1  0  0  0  0
 16 14  1  0  0  0  0
 17 16  1  0  0  0  0
 17 18  1  0  0  0  0
 18 15  1  0  0  0  0
 19 12  1  0  0  0  0
 20 13  1  0  0  0  0
 21 15  1  0  0  0  0
 22 16  1  0  0  0  0
 23 17  1  0  0  0  0
 24 18  1  0  0  0  0
 25 12  1  0  0  0  0
 26 13  1  0  0  0  0
 27 15  1  0  0  0  0
 28 16  1  0  0  0  0
 29 17  1  0  0  0  0
 30 18  1  0  0  0  0
  1  9  1  0  0  0  0
 31 34  1  0  0  0  0
 34 35  2  0  0  0  0
 32 35  1  0  0  0  0
 32 36  2  0  0  0  0
 33 36  1  0  0  0  0
 31 33  2  0  0  0  0
 35 38  1  0  0  0  0
 36 39  1  0  0  0  0
 32 40  1  0  0  0  0
 34 37  1  0  0  0  0
 41 42  1  0  0  0  0
 41 43  1  0  0  0  0
 41 44  1  0  0  0  0
 33 41  1  0  0  0  0
  9 31  1  0  0  0  0
 46 47  1  0  0  0  0
 46 48  1  0  0  0  0
 46 49  1  0  0  0  0
 45 46  1  0  0  0  0
  1 45  1  0  0  0  0
M  END
> <PM6_ENERGY>
-786.799

> <UID>
MXQXNEYYZWMABZ-RHZXYZFZNA-N

> <FITNESS>
1.14377

> <GCODE>
4312

> <GraphENC>
4312 72_1_0,80_65_1,120_60_1,86_65_1,83626_37_1, 72_0_80_0_SINGLE_Xlig:0_Xlig:1,72_2_120_1_SINGLE_scaff:0_MPhosphonite:1,72_1_86_0_SINGLE_Xlig:0_Xlig:1,120_0_83626_0_SINGLE_LPhosphoniteSubR:0_SubArM:1, 

> <GraphJson>
{
  "graphId": 4312,
  "gVertices": [
    {
      "lstAPs": [
        {
          "id": 110325,
          "atomPositionNumber": 0,
          "atomPositionNumberInMol": 0,
          "apClass": {
            "rule": "Xlig",
            "subClass": 0,
            "bndTyp": "SINGLE"
          },
          "dirVec": {
            "x": -2.3339,
            "y": -0.0087,
            "z": 0.8172
          }
        },
        {
          "id": 110326,
          "atomPositionNumber": 0,
          "atomPositionNumberInMol": 0,
          "apClass": {
            "rule": "Xlig",
            "subClass": 0,
            "bndTyp": "SINGLE"
          },
          "dirVec": {
            "x": 2.336,
            "y": -5.0E-4,
            "z": 0.829
          }
        },
        {
          "id": 110327,
          "atomPositionNumber": 0,
          "atomPositionNumberInMol": 0,
          "apClass": {
            "rule": "scaff",
            "subClass": 0,
            "bndTyp": "SINGLE"
          },
          "dirVec": {
            "x": -0.0095,
            "y": 0.0046,
            "z": -1.7113
          }
        }
      ],
      "lstSymAPs": [
        {
          "symIds": [
            0,
            1
          ]
        }
      ],
      "mol": {
        "atoms": [
          {
            "elSymbol": "Pt",
            "p3d": {
              "x": -0.0098,
              "y": 0.0049,
              "z": 0.6289
            }
          },
          {
            "elSymbol": "C",
            "p3d": {
              "x": -6.0E-4,
              "y": 0.0016,
              "z": 2.5609
            }
          },
          {
            "elSymbol": "O",
            "p3d": {
              "x": 0.0025,
              "y": -0.0041,
              "z": 3.6974
            }
          },
          {
            "elSymbol": "Du",
            "p3d": {
              "x": -0.007,
              "y": 1.0013,
              "z": 0.6372
            }
          },
          {
            "elSymbol": "Du",
            "p3d": {
              "x": -0.0014,
              "y": 0.9902,
              "z": 2.5698
            }
          }
        ],
        "bonds": [
          {
            "atomIds": [
              1,
              2
            ],
            "bo": "TRIPLE"
          },
          {
            "atomIds": [
              0,
              1
            ],
            "bo": "SINGLE"
          },
          {
            "atomIds": [
              3,
              0
            ],
            "bo": "SINGLE"
          },
          {
            "atomIds": [
              4,
              1
            ],
            "bo": "SINGLE"
          }
        ]
      },
      "vertexId": 72,
      "buildingBlockId": 0,
      "buildingBlockType": "SCAFFOLD",
      "isRCV": false,
      "properties": {
        "ATTACHMENT_POINTS": "1#Xlig:0:SINGLE:-2.3339%-0.0087%0.8172,Xlig:0:SINGLE:2.3360%-0.0005%0.8290,scaff:0:SINGLE:-0.0095%0.0046%-1.7113 "
      },
      "uniquefyingPropertyKeys": [],
      "allowedMutationTypes": [
        "DELETE",
        "EXTEND",
        "CHANGEBRANCH",
        "CHANGELINK",
        "ADDLINK",
        "DELETELINK",
        "DELETECHAIN"
      ],
      "vertexType": "MolecularFragment"
    },
    {
      "lstAPs": [
        {
          "id": 110328,
          "atomPositionNumber": 0,
          "atomPositionNumberInMol": 5,
          "apClass": {
            "rule": "Xlig",
            "subClass": 1,
            "bndTyp": "SINGLE"
          },
          "dirVec": {
            "x": -0.1753,
            "y": 0.0948,
            "z": -0.4464
          }
        }
      ],
      "lstSymAPs": [],
      "mol": {
        "atoms": [
          {
            "elSymbol": "O",
            "p3d": {
              "x": -0.3534,
              "y": 2.1044,
              "z": -0.7339
            }
          },
          {
            "elSymbol": "C",
            "p3d": {
              "x": -0.5345,
              "y": 2.7646,
              "z": 0.4801
            }
          },
          {
            "elSymbol": "H",
            "p3d": {
              "x": -0.3728,
              "y": 3.8337,
              "z": 0.2724
            }
          },
          {
            "elSymbol": "H",
            "p3d": {
              "x": 0.1816,
              "y": 2.4161,
              "z": 1.2384
            }
          },
          {
            "elSymbol": "H",
            "p3d": {
              "x": -1.553,
              "y": 2.6149,
              "z": 0.8489
            }
          }
        ],
        "bonds": [
          {
            "atomIds": [
              1,
              2
            ],
            "bo": "SINGLE"
          },
          {
            "atomIds": [
              1,
              3
            ],
            "bo": "SINGLE"
          },
          {
            "atomIds": [
              1,
              4
            ],
            "bo": "SINGLE"
          },
          {
            "atomIds": [
              0,
              1
            ],
            "bo": "SINGLE"
          }
        ]
      },
      "vertexId": 80,
      "buildingBlockId": 64,
      "buildingBlockType": "FRAGMENT",
      "isRCV": false,
      "properties": {
        "ATTACHMENT_POINTS": "1#Xlig:1:SINGLE:-0.1753%0.0948%-0.4464 "
      },
      "uniquefyingPropertyKeys": [],
      "allowedMutationTypes": [
        "DELETE",
        "EXTEND",
        "CHANGEBRANCH",
        "CHANGELINK",
        "ADDLINK",
        "DELETELINK",
        "DELETECHAIN"
      ],
      "vertexType": "MolecularFragment"
    },
    {
      "lstAPs": [
        {
          "id": 110329,
          "atomPositionNumber": 0,
          "atomPositionNumberInMol": 10,
          "apClass": {
            "rule": "LPhosphoniteSubR",
            "subClass": 0,
            "bndTyp": "SINGLE"
          },
          "dirVec": {
            "x": 8.5833,
            "y": -0.8556,
            "z": 13.5393
          }
        },
        {
          "id": 110330,
          "atomPositionNumber": 0,
          "atomPositionNumberInMol": 10,
          "apClass": {
            "rule": "MPhosphonite",
            "subClass": 1,
            "bndTyp": "SINGLE"
          },
          "dirVec": {
            "x": 10.4864,
            "y": 1.7322,
            "z": 12.8008
          }
        }
      ],
      "lstSymAPs": [],
      "mol": {
        "atoms": [
          {
            "elSymbol": "P",
            "p3d": {
              "x": 9.4136,
              "y": 0.5115,
              "z": 14.3923
            }
          },
          {
            "elSymbol": "O",
            "p3d": {
              "x": 8.2442,
              "y": 1.2619,
              "z": 15.1868
            }
          },
          {
            "elSymbol": "O",
            "p3d": {
              "x": 10.2958,
              "y": -0.1433,
              "z": 15.5334
            }
          },
          {
            "elSymbol": "C",
            "p3d": {
              "x": 7.569,
              "y": 0.5127,
              "z": 16.2393
            }
          },
          {
            "elSymbol": "C",
            "p3d": {
              "x": 9.6126,
              "y": -0.8784,
              "z": 16.5841
            }
          },
          {
            "elSymbol": "C",
            "p3d": {
              "x": 8.5724,
              "y": -0.0317,
              "z": 17.272
            }
          },
          {
            "elSymbol": "C",
            "p3d": {
              "x": 7.8304,
              "y": -0.8777,
              "z": 18.3165
            }
          },
          {
            "elSymbol": "C",
            "p3d": {
              "x": 9.196,
              "y": 1.1315,
              "z": 18.0904
            }
          },
          {
            "elSymbol": "C",
            "p3d": {
              "x": 8.5732,
              "y": 1.0297,
              "z": 19.3942
            }
          },
          {
            "elSymbol": "C",
            "p3d": {
              "x": 7.5194,
              "y": 0.0547,
              "z": 19.4381
            }
          },
          {
            "elSymbol": "H",
            "p3d": {
              "x": 6.9817,
              "y": 1.2703,
              "z": 16.7546
            }
          },
          {
            "elSymbol": "H",
            "p3d": {
              "x": 9.0105,
              "y": -1.7019,
              "z": 16.1896
            }
          },
          {
            "elSymbol": "H",
            "p3d": {
              "x": 8.4263,
              "y": -1.7167,
              "z": 18.6441
            }
          },
          {
            "elSymbol": "H",
            "p3d": {
              "x": 10.2549,
              "y": 0.9263,
              "z": 17.976
            }
          },
          {
            "elSymbol": "H",
            "p3d": {
              "x": 8.3046,
              "y": 1.9671,
              "z": 19.8829
            }
          },
          {
            "elSymbol": "H",
            "p3d": {
              "x": 6.5618,
              "y": 0.5532,
              "z": 19.2885
            }
          },
          {
            "elSymbol": "H",
            "p3d": {
              "x": 7.1262,
              "y": -0.3475,
              "z": 15.7389
            }
          },
          {
            "elSymbol": "H",
            "p3d": {
              "x": 10.5271,
              "y": -1.1697,
              "z": 17.0978
            }
          },
          {
            "elSymbol": "H",
            "p3d": {
              "x": 6.9137,
              "y": -1.2746,
              "z": 17.8773
            }
          },
          {
            "elSymbol": "H",
            "p3d": {
              "x": 9.6349,
              "y": 2.045,
              "z": 17.6739
            }
          },
          {
            "elSymbol": "H",
            "p3d": {
              "x": 9.3306,
              "y": 0.6014,
              "z": 20.0507
            }
          },
          {
            "elSymbol": "H",
            "p3d": {
              "x": 7.4379,
              "y": -0.5103,
              "z": 20.3832
            }
          }
        ],
        "bonds": [
          {
            "atomIds": [
              1,
              0
            ],
            "bo": "SINGLE"
          },
          {
            "atomIds": [
              2,
              0
            ],
            "bo": "SINGLE"
          },
          {
            "atomIds": [
              3,
              1
            ],
            "bo": "SINGLE"
          },
          {
            "atomIds": [
              4,
              2
            ],
            "bo": "SINGLE"
          },
          {
            "atomIds": [
              4,
              5
            ],
            "bo": "SINGLE"
          },
          {
            "atomIds": [
              5,
              3
            ],
            "bo": "SINGLE"
          },
          {
            "atomIds": [
              6,
              5
            ],
            "bo": "SINGLE"
          },
          {
            "atomIds": [
              7,
              5
            ],
            "bo": "SINGLE"
          },
          {
            "atomIds": [
              8,
              7
            ],
            "bo": "SINGLE"
          },
          {
            "atomIds": [
              8,
              9
            ],
            "bo": "SINGLE"
          },
          {
            "atomIds": [
              9,
              6
            ],
            "bo": "SINGLE"
          },
          {
            "atomIds": [
              10,
              3
            ],
            "bo": "SINGLE"
          },
          {
            "atomIds": [
              11,
              4
            ],
            "bo": "SINGLE"
          },
          {
            "atomIds": [
              12,
              6
            ],
            "bo": "SINGLE"
          },
          {
            "atomIds": [
              13,
              7
            ],
            "bo": "SINGLE"
          },
          {
            "atomIds": [
              14,
              8
            ],
            "bo": "SINGLE"
          },
          {
            "atomIds": [
              15,
              9
            ],
            "bo": "SINGLE"
          },
          {
            "atomIds": [
              16,
              3
            ],
            "bo": "SINGLE"
          },
          {
            "atomIds": [
              17,
              4
            ],
            "bo": "SINGLE"
          },
          {
            "atomIds": [
              18,
              6
            ],
            "bo": "SINGLE"
          },
          {
            "atomIds": [
              19,
              7
            ],
            "bo": "SINGLE"
          },
          {
            "atomIds": [
              20,
              8
            ],
            "bo": "SINGLE"
          },
          {
            "atomIds": [
              21,
              9
            ],
            "bo": "SINGLE"
          }
        ]
      },
      "vertexId": 120,
      "buildingBlockId": 59,
      "buildingBlockType": "FRAGMENT",
      "isRCV": false,
      "properties": {
        "ATTACHMENT_POINTS": "1#LPhosphoniteSubR:0:SINGLE:8.5833%-0.8556%13.5393,MPhosphonite:1:SINGLE:10.4864%1.7322%12.8008 "
      },
      "uniquefyingPropertyKeys": [],
      "allowedMutationTypes": [
        "DELETE",
        "EXTEND",
        "CHANGEBRANCH",
        "CHANGELINK",
        "ADDLINK",
        "DELETELINK",
        "DELETECHAIN"
      ],
      "vertexType": "MolecularFragment"
    },
    {
      "lstAPs": [
        {
          "id": 110331,
          "atomPositionNumber": 0,
          "atomPositionNumberInMol": 46,
          "apClass": {
            "rule": "Xlig",
            "subClass": 1,
            "bndTyp": "SINGLE"
          },
          "dirVec": {
            "x": -0.1753,
            "y": 0.0948,
            "z": -0.4464
          }
        }
      ],
      "lstSymAPs": [],
      "mol": {
        "atoms": [
          {
            "elSymbol": "O",
            "p3d": {
              "x": -0.3534,
              "y": 2.1044,
              "z": -0.7339
            }
          },
          {
            "elSymbol": "C",
            "p3d": {
              "x": -0.5345,
              "y": 2.7646,
              "z": 0.4801
            }
          },
          {
            "elSymbol": "H",
            "p3d": {
              "x": -0.3728,
              "y": 3.8337,
              "z": 0.2724
            }
          },
          {
            "elSymbol": "H",
            "p3d": {
              "x": 0.1816,
              "y": 2.4161,
              "z": 1.2384
            }
          },
          {
            "elSymbol": "H",
            "p3d": {
              "x": -1.553,
              "y": 2.6149,
              "z": 0.8489
            }
          }
        ],
        "bonds": [
          {
            "atomIds": [
              1,
              2
            ],
            "bo": "SINGLE"
          },
          {
            "atomIds": [
              1,
              3
            ],
            "bo": "SINGLE"
          },
          {
            "atomIds": [
              1,
              4
            ],
            "bo": "SINGLE"
          },
          {
            "atomIds": [
              0,
              1
            ],
            "bo": "SINGLE"
          }
        ]
      },
      "vertexId": 86,
      "buildingBlockId": 64,
      "buildingBlockType": "FRAGMENT",
      "isRCV": false,
      "properties": {
        "ATTACHMENT_POINTS": "1#Xlig:1:SINGLE:-0.1753%0.0948%-0.4464 "
      },
      "uniquefyingPropertyKeys": [],
      "allowedMutationTypes": [
        "DELETE",
        "EXTEND",
        "CHANGEBRANCH",
        "CHANGELINK",
        "ADDLINK",
        "DELETELINK",
        "DELETECHAIN"
      ],
      "vertexType": "MolecularFragment"
    },
    {
      "lstAPs": [
        {
          "id": 110356,
          "atomPositionNumber": 0,
          "atomPositionNumberInMol": 32,
          "apClass": {
            "rule": "SubArM",
            "subClass": 1,
            "bndTyp": "SINGLE"
          },
          "dirVec": {
            "x": 0.3016,
            "y": 0.3831,
            "z": -0.6449
          }
        }
      ],
      "lstSymAPs": [],
      "mol": {
        "atoms": [
          {
            "elSymbol": "C",
            "p3d": {
              "x": 1.7096,
              "y": 0.5525,
              "z": -1.2136
            }
          },
          {
            "elSymbol": "C",
            "p3d": {
              "x": 4.2502,
              "y": 0.8767,
              "z": -2.2636
            }
          },
          {
            "elSymbol": "C",
            "p3d": {
              "x": 2.3368,
              "y": 1.7899,
              "z": -1.1199
            }
          },
          {
            "elSymbol": "C",
            "p3d": {
              "x": 2.344,
              "y": -0.5151,
              "z": -1.819
            }
          },
          {
            "elSymbol": "C",
            "p3d": {
              "x": 3.6162,
              "y": -0.3625,
              "z": -2.3439
            }
          },
          {
            "elSymbol": "C",
            "p3d": {
              "x": 3.6039,
              "y": 1.9353,
              "z": -1.6584
            }
          },
          {
            "elSymbol": "H",
            "p3d": {
              "x": 1.8411,
              "y": -1.493,
              "z": -1.8837
            }
          },
          {
            "elSymbol": "H",
            "p3d": {
              "x": 4.113,
              "y": -1.2006,
              "z": -2.8069
            }
          },
          {
            "elSymbol": "H",
            "p3d": {
              "x": 4.1107,
              "y": 2.9115,
              "z": -1.5913
            }
          },
          {
            "elSymbol": "H",
            "p3d": {
              "x": 5.2516,
              "y": 0.992,
              "z": -2.67
            }
          },
          {
            "elSymbol": "C",
            "p3d": {
              "x": 1.6301,
              "y": 2.9729,
              "z": -0.4606
            }
          },
          {
            "elSymbol": "H",
            "p3d": {
              "x": 2.3743,
              "y": 3.6775,
              "z": -0.0646
            }
          },
          {
            "elSymbol": "H",
            "p3d": {
              "x": 1.0016,
              "y": 2.6144,
              "z": 0.3512
            }
          },
          {
            "elSymbol": "H",
            "p3d": {
              "x": 1.0097,
              "y": 3.4845,
              "z": -1.1971
            }
          }
        ],
        "bonds": [
          {
            "atomIds": [
              0,
              3
            ],
            "bo": "SINGLE"
          },
          {
            "atomIds": [
              3,
              4
            ],
            "bo": "DOUBLE"
          },
          {
            "atomIds": [
              1,
              4
            ],
            "bo": "SINGLE"
          },
          {
            "atomIds": [
              1,
              5
            ],
            "bo": "DOUBLE"
          },
          {
            "atomIds": [
              2,
              5
            ],
            "bo": "SINGLE"
          },
          {
            "atomIds": [
              0,
              2
            ],
            "bo": "DOUBLE"
          },
          {
            "atomIds": [
              4,
              7
            ],
            "bo": "SINGLE"
          },
          {
            "atomIds": [
              5,
              8
            ],
            "bo": "SINGLE"
          },
          {
            "atomIds": [
              1,
              9
            ],
            "bo": "SINGLE"
          },
          {
            "atomIds": [
              3,
              6
            ],
            "bo": "SINGLE"
          },
          {
            "atomIds": [
              10,
              11
            ],
            "bo": "SINGLE"
          },
          {
            "atomIds": [
              10,
              12
            ],
            "bo": "SINGLE"
          },
          {
            "atomIds": [
              10,
              13
            ],
            "bo": "SINGLE"
          },
          {
            "atomIds": [
              2,
              10
            ],
            "bo": "SINGLE"
          }
        ]
      },
      "vertexId": 83626,
      "buildingBlockId": 36,
      "buildingBlockType": "FRAGMENT",
      "isRCV": false,
      "properties": {
        "ATTACHMENT_POINTS": "1#SubArM:1:SINGLE:0.3016%0.3831%-0.6449 "
      },
      "uniquefyingPropertyKeys": [],
      "allowedMutationTypes": [
        "DELETE",
        "EXTEND",
        "CHANGEBRANCH",
        "CHANGELINK",
        "ADDLINK",
        "DELETELINK",
        "DELETECHAIN"
      ],
      "vertexType": "MolecularFragment"
    }
  ],
  "gEdges": [
    {
      "srcAPID": 110325,
      "trgAPID": 110328,
      "bondType": "SINGLE"
    },
    {
      "srcAPID": 110327,
      "trgAPID": 110330,
      "bondType": "SINGLE"
    },
    {
      "srcAPID": 110326,
      "trgAPID": 110331,
      "bondType": "SINGLE"
    },
    {
      "srcAPID": 110329,
      "trgAPID": 110356,
      "bondType": "SINGLE"
    }
  ],
  "gRings": [],
  "symVertices": []
}

> <SMILES>
[Pt](C#O)(OC([H])([H])[H])([P]1(OC(C2(C(O1)([H])[H])C(C(C(C2([H])[H])([H])[H])([H])[H])([H])[H])([H])[H])C=3C(=C(C(=C(C3C([H])([H])[H])[H])[H])[H])[H])OC([H])([H])[H]

$$$$
