M00020060
  CDK     04222215513D

 38 39  0  0  0  0  0  0  0  0999 V2000
   -1.9808    1.6927   -1.1737 Pt  0  0  0  0  0  0  0  0  0  0  0  0
   -3.8949    2.1024   -1.3330 C   0  0  0  0  0  0  0  0  0  0  0  0
   -5.0039    2.3439   -1.4307 O   0  0  0  0  0  0  0  0  0  0  0  0
   -1.7303    4.0177   -1.2055 Cl  0  0  0  0  0  0  0  0  0  0  0  0
    0.2570    1.2114   -1.0563 P   0  0  0  0  0  0  0  0  0  0  0  0
    1.6194    3.4690   -0.1614 C   0  0  0  0  0  0  0  0  0  0  0  0
    1.4112    2.6427   -1.4191 C   0  0  0  0  0  0  0  0  0  0  0  0
    0.6988    3.9783    0.1719 H   0  0  0  0  0  0  0  0  0  0  0  0
    2.0031    2.8839    0.6882 H   0  0  0  0  0  0  0  0  0  0  0  0
    2.3520    4.2688   -0.3468 H   0  0  0  0  0  0  0  0  0  0  0  0
    0.9642    3.2771   -2.2219 H   0  0  0  0  0  0  0  0  0  0  0  0
    2.3801    2.2721   -1.8113 H   0  0  0  0  0  0  0  0  0  0  0  0
   -0.1028    0.2400   -3.5863 C   0  0  0  0  0  0  0  0  0  0  0  0
    0.5805   -0.1618   -2.2898 C   0  0  0  0  0  0  0  0  0  0  0  0
   -1.1865    0.4345   -3.4639 H   0  0  0  0  0  0  0  0  0  0  0  0
    0.3503    1.1138   -4.0736 H   0  0  0  0  0  0  0  0  0  0  0  0
   -0.0395   -0.5822   -4.3182 H   0  0  0  0  0  0  0  0  0  0  0  0
    0.1477   -1.1176   -1.9054 H   0  0  0  0  0  0  0  0  0  0  0  0
    1.6605   -0.3535   -2.4301 H   0  0  0  0  0  0  0  0  0  0  0  0
    0.8295    0.6748    0.4433 O   0  0  0  0  0  0  0  0  0  0  0  0
   -1.7498    1.1994    1.2396 H   0  0  0  0  0  0  0  0  0  0  0  0
   -1.3205    0.2273    1.5078 C   0  0  0  0  0  0  0  0  0  0  0  0
   -0.0564   -0.1694    1.1386 C   0  0  0  0  0  0  0  0  0  0  0  0
   -1.6066   -1.8883    2.6834 C   0  0  0  0  0  0  0  0  0  0  0  0
    0.5170   -1.4270    1.5240 C   0  0  0  0  0  0  0  0  0  0  0  0
   -2.1020   -0.6685    2.2961 C   0  0  0  0  0  0  0  0  0  0  0  0
   -0.2855   -2.2949    2.3101 C   0  0  0  0  0  0  0  0  0  0  0  0
    1.8405   -1.8206    1.1596 C   0  0  0  0  0  0  0  0  0  0  0  0
   -3.1098   -0.3593    2.5770 H   0  0  0  0  0  0  0  0  0  0  0  0
   -0.3642   -4.2259    3.3066 H   0  0  0  0  0  0  0  0  0  0  0  0
   -2.2123   -2.5708    3.2789 H   0  0  0  0  0  0  0  0  0  0  0  0
    2.3320   -3.0389    1.5571 C   0  0  0  0  0  0  0  0  0  0  0  0
    2.4443   -1.1267    0.5745 H   0  0  0  0  0  0  0  0  0  0  0  0
    3.3395   -3.3512    1.2876 H   0  0  0  0  0  0  0  0  0  0  0  0
    1.5272   -3.9189    2.3384 C   0  0  0  0  0  0  0  0  0  0  0  0
    1.9438   -4.8806    2.6376 H   0  0  0  0  0  0  0  0  0  0  0  0
    0.2550   -3.5593    2.7074 C   0  0  0  0  0  0  0  0  0  0  0  0
   -2.7075   -0.5344   -1.2007 Cl  0  0  0  0  0  0  0  0  0  0  0  0
  2  3  3  0  0  0  0
  1  2  1  0  0  0  0
  1  4  1  0  0  0  0
  1  5  1  0  0  0  0
  6  7  1  0  0  0  0
  6  8  1  0  0  0  0
  6  9  1  0  0  0  0
  6 10  1  0  0  0  0
  7 11  1  0  0  0  0
  7 12  1  0  0  0  0
  5  7  1  0  0  0  0
 13 14  1  0  0  0  0
 13 15  1  0  0  0  0
 13 16  1  0  0  0  0
 13 17  1  0  0  0  0
 14 18  1  0  0  0  0
 14 19  1  0  0  0  0
  5 14  1  0  0  0  0
  5 20  1  0  0  0  0
 21 22  1  0  0  0  0
 22 23  1  0  0  0  0
 22 26  2  0  0  0  0
 23 25  2  0  0  0  0
 25 27  1  0  0  0  0
 24 26  1  0  0  0  0
 24 27  2  0  0  0  0
 28 25  1  0  0  0  0
 27 37  1  0  0  0  0
 28 32  2  0  0  0  0
 32 35  1  0  0  0  0
 35 37  2  0  0  0  0
 24 31  1  0  0  0  0
 26 29  1  0  0  0  0
 28 33  1  0  0  0  0
 30 37  1  0  0  0  0
 35 36  1  0  0  0  0
 32 34  1  0  0  0  0
 20 23  1  0  0  0  0
  1 38  1  0  0  0  0
M  END
> <PM6_ENERGY>
-372.050

> <UID>
NCMUZTCCSGMTCQ-YUHXKDMINA-L

> <FITNESS>
1.13919

> <GCODE>
21421

> <GraphENC>
21421 72_1_0,82_67_1,109_47_1,88_67_1,349062_32_1,349088_32_1,349058_48_1,502378_39_1, 72_0_82_0_SINGLE_Xlig:0_Xlig:1,72_2_109_3_SINGLE_scaff:0_MPhosphinite:1,72_1_88_0_SINGLE_Xlig:0_Xlig:1,109_1_349062_0_SINGLE_LPhosphiniteSubR:0_SubRS:1,109_2_349088_0_SINGLE_LPhosphiniteSubR:0_SubRS:1,109_0_349058_0_SINGLE_LPhosphiniteSubO:0_LPhosphiniteSubO:1,349058_1_502378_0_SINGLE_OPhosphiniteSub:1_SubArM:1, SymmetricSet [symIds=[349062, 349088]] 

> <GraphJson>
{
  "graphId": 21421,
  "gVertices": [
    {
      "lstAPs": [
        {
          "id": 585329,
          "atomPositionNumber": 0,
          "atomPositionNumberInMol": 0,
          "apClass": {
            "rule": "Xlig",
            "subClass": 0,
            "bndTyp": "SINGLE"
          },
          "dirVec": {
            "x": -2.3339,
            "y": -0.0087,
            "z": 0.8172
          }
        },
        {
          "id": 585330,
          "atomPositionNumber": 0,
          "atomPositionNumberInMol": 0,
          "apClass": {
            "rule": "Xlig",
            "subClass": 0,
            "bndTyp": "SINGLE"
          },
          "dirVec": {
            "x": 2.336,
            "y": -5.0E-4,
            "z": 0.829
          }
        },
        {
          "id": 585331,
          "atomPositionNumber": 0,
          "atomPositionNumberInMol": 0,
          "apClass": {
            "rule": "scaff",
            "subClass": 0,
            "bndTyp": "SINGLE"
          },
          "dirVec": {
            "x": -0.0095,
            "y": 0.0046,
            "z": -1.7113
          }
        }
      ],
      "lstSymAPs": [
        {
          "symIds": [
            0,
            1
          ]
        }
      ],
      "mol": {
        "atoms": [
          {
            "elSymbol": "Pt",
            "p3d": {
              "x": -0.0098,
              "y": 0.0049,
              "z": 0.6289
            }
          },
          {
            "elSymbol": "C",
            "p3d": {
              "x": -6.0E-4,
              "y": 0.0016,
              "z": 2.5609
            }
          },
          {
            "elSymbol": "O",
            "p3d": {
              "x": 0.0025,
              "y": -0.0041,
              "z": 3.6974
            }
          },
          {
            "elSymbol": "Du",
            "p3d": {
              "x": -0.007,
              "y": 1.0013,
              "z": 0.6372
            }
          },
          {
            "elSymbol": "Du",
            "p3d": {
              "x": -0.0014,
              "y": 0.9902,
              "z": 2.5698
            }
          }
        ],
        "bonds": [
          {
            "atomIds": [
              1,
              2
            ],
            "bo": "TRIPLE"
          },
          {
            "atomIds": [
              0,
              1
            ],
            "bo": "SINGLE"
          },
          {
            "atomIds": [
              3,
              0
            ],
            "bo": "SINGLE"
          },
          {
            "atomIds": [
              4,
              1
            ],
            "bo": "SINGLE"
          }
        ]
      },
      "vertexId": 72,
      "buildingBlockId": 0,
      "buildingBlockType": "SCAFFOLD",
      "isRCV": false,
      "properties": {
        "ATTACHMENT_POINTS": "1#Xlig:0:SINGLE:-2.3339%-0.0087%0.8172,Xlig:0:SINGLE:2.3360%-0.0005%0.8290,scaff:0:SINGLE:-0.0095%0.0046%-1.7113 "
      },
      "uniquefyingPropertyKeys": [],
      "allowedMutationTypes": [
        "DELETE",
        "EXTEND",
        "CHANGEBRANCH",
        "CHANGELINK",
        "ADDLINK",
        "DELETELINK",
        "DELETECHAIN"
      ],
      "vertexType": "MolecularFragment"
    },
    {
      "lstAPs": [
        {
          "id": 585332,
          "atomPositionNumber": 0,
          "atomPositionNumberInMol": 5,
          "apClass": {
            "rule": "Xlig",
            "subClass": 1,
            "bndTyp": "SINGLE"
          },
          "dirVec": {
            "x": -0.0053,
            "y": -0.0027,
            "z": 0.63
          }
        }
      ],
      "lstSymAPs": [],
      "mol": {
        "atoms": [
          {
            "elSymbol": "Cl",
            "p3d": {
              "x": 2.3243,
              "y": -0.0063,
              "z": 0.8189
            }
          }
        ],
        "bonds": []
      },
      "vertexId": 82,
      "buildingBlockId": 66,
      "buildingBlockType": "FRAGMENT",
      "isRCV": false,
      "properties": {
        "ATTACHMENT_POINTS": "1#Xlig:1:SINGLE:-0.0053%-0.0027%0.6300 "
      },
      "uniquefyingPropertyKeys": [],
      "allowedMutationTypes": [
        "DELETE",
        "EXTEND",
        "CHANGEBRANCH",
        "CHANGELINK",
        "ADDLINK",
        "DELETELINK",
        "DELETECHAIN"
      ],
      "vertexType": "MolecularFragment"
    },
    {
      "lstAPs": [
        {
          "id": 585333,
          "atomPositionNumber": 0,
          "atomPositionNumberInMol": 6,
          "apClass": {
            "rule": "LPhosphiniteSubO",
            "subClass": 0,
            "bndTyp": "SINGLE"
          },
          "dirVec": {
            "x": 7.6619,
            "y": 4.8954,
            "z": 6.0599
          }
        },
        {
          "id": 585334,
          "atomPositionNumber": 0,
          "atomPositionNumberInMol": 6,
          "apClass": {
            "rule": "LPhosphiniteSubR",
            "subClass": 0,
            "bndTyp": "SINGLE"
          },
          "dirVec": {
            "x": 5.2032,
            "y": 3.9742,
            "z": 6.7915
          }
        },
        {
          "id": 585335,
          "atomPositionNumber": 0,
          "atomPositionNumberInMol": 6,
          "apClass": {
            "rule": "LPhosphiniteSubR",
            "subClass": 0,
            "bndTyp": "SINGLE"
          },
          "dirVec": {
            "x": 5.5408,
            "y": 5.7995,
            "z": 4.6157
          }
        },
        {
          "id": 585336,
          "atomPositionNumber": 0,
          "atomPositionNumberInMol": 6,
          "apClass": {
            "rule": "MPhosphinite",
            "subClass": 1,
            "bndTyp": "SINGLE"
          },
          "dirVec": {
            "x": 6.7665,
            "y": 2.684,
            "z": 3.9076
          }
        }
      ],
      "lstSymAPs": [
        {
          "symIds": [
            1,
            2
          ]
        }
      ],
      "mol": {
        "atoms": [
          {
            "elSymbol": "P",
            "p3d": {
              "x": 6.2956,
              "y": 4.3598,
              "z": 5.4081
            }
          }
        ],
        "bonds": []
      },
      "vertexId": 109,
      "buildingBlockId": 46,
      "buildingBlockType": "FRAGMENT",
      "isRCV": false,
      "properties": {
        "ATTACHMENT_POINTS": "1#LPhosphiniteSubO:0:SINGLE:7.6619%4.8954%6.0599,LPhosphiniteSubR:0:SINGLE:5.2032%3.9742%6.7915,LPhosphiniteSubR:0:SINGLE:5.5408%5.7995%4.6157,MPhosphinite:1:SINGLE:6.7665%2.6840%3.9076 "
      },
      "uniquefyingPropertyKeys": [],
      "allowedMutationTypes": [
        "DELETE",
        "EXTEND",
        "CHANGEBRANCH",
        "CHANGELINK",
        "ADDLINK",
        "DELETELINK",
        "DELETECHAIN"
      ],
      "vertexType": "MolecularFragment"
    },
    {
      "lstAPs": [
        {
          "id": 585337,
          "atomPositionNumber": 0,
          "atomPositionNumberInMol": 39,
          "apClass": {
            "rule": "Xlig",
            "subClass": 1,
            "bndTyp": "SINGLE"
          },
          "dirVec": {
            "x": -0.0053,
            "y": -0.0027,
            "z": 0.63
          }
        }
      ],
      "lstSymAPs": [],
      "mol": {
        "atoms": [
          {
            "elSymbol": "Cl",
            "p3d": {
              "x": 2.3243,
              "y": -0.0063,
              "z": 0.8189
            }
          }
        ],
        "bonds": []
      },
      "vertexId": 88,
      "buildingBlockId": 66,
      "buildingBlockType": "FRAGMENT",
      "isRCV": false,
      "properties": {
        "ATTACHMENT_POINTS": "1#Xlig:1:SINGLE:-0.0053%-0.0027%0.6300 "
      },
      "uniquefyingPropertyKeys": [],
      "allowedMutationTypes": [
        "DELETE",
        "EXTEND",
        "CHANGEBRANCH",
        "CHANGELINK",
        "ADDLINK",
        "DELETELINK",
        "DELETECHAIN"
      ],
      "vertexType": "MolecularFragment"
    },
    {
      "lstAPs": [
        {
          "id": 585338,
          "atomPositionNumber": 1,
          "atomPositionNumberInMol": 8,
          "apClass": {
            "rule": "SubRS",
            "subClass": 1,
            "bndTyp": "SINGLE"
          },
          "dirVec": {
            "x": 0.2985,
            "y": 0.384,
            "z": -0.6258
          }
        }
      ],
      "lstSymAPs": [],
      "mol": {
        "atoms": [
          {
            "elSymbol": "C",
            "p3d": {
              "x": -1.0244,
              "y": -0.2225,
              "z": 1.3991
            }
          },
          {
            "elSymbol": "C",
            "p3d": {
              "x": 0.3973,
              "y": -0.042,
              "z": 0.8195
            }
          },
          {
            "elSymbol": "H",
            "p3d": {
              "x": -1.5635,
              "y": -0.9908,
              "z": 0.8263
            }
          },
          {
            "elSymbol": "H",
            "p3d": {
              "x": -0.941,
              "y": -0.535,
              "z": 2.446
            }
          },
          {
            "elSymbol": "H",
            "p3d": {
              "x": -1.5586,
              "y": 0.7335,
              "z": 1.3382
            }
          },
          {
            "elSymbol": "H",
            "p3d": {
              "x": 0.9335,
              "y": 0.7221,
              "z": 1.4011
            }
          },
          {
            "elSymbol": "H",
            "p3d": {
              "x": 0.927,
              "y": -1.0102,
              "z": 0.9001
            }
          }
        ],
        "bonds": [
          {
            "atomIds": [
              0,
              1
            ],
            "bo": "SINGLE"
          },
          {
            "atomIds": [
              0,
              2
            ],
            "bo": "SINGLE"
          },
          {
            "atomIds": [
              0,
              3
            ],
            "bo": "SINGLE"
          },
          {
            "atomIds": [
              0,
              4
            ],
            "bo": "SINGLE"
          },
          {
            "atomIds": [
              1,
              5
            ],
            "bo": "SINGLE"
          },
          {
            "atomIds": [
              1,
              6
            ],
            "bo": "SINGLE"
          }
        ]
      },
      "vertexId": 349062,
      "buildingBlockId": 31,
      "buildingBlockType": "FRAGMENT",
      "isRCV": false,
      "properties": {
        "ATTACHMENT_POINTS": "2#SubRS:1:SINGLE:0.2985%0.3840%-0.6258 "
      },
      "uniquefyingPropertyKeys": [],
      "allowedMutationTypes": [
        "DELETE",
        "EXTEND",
        "CHANGEBRANCH",
        "CHANGELINK",
        "ADDLINK",
        "DELETELINK",
        "DELETECHAIN"
      ],
      "vertexType": "MolecularFragment"
    },
    {
      "lstAPs": [
        {
          "id": 585339,
          "atomPositionNumber": 1,
          "atomPositionNumberInMol": 15,
          "apClass": {
            "rule": "SubRS",
            "subClass": 1,
            "bndTyp": "SINGLE"
          },
          "dirVec": {
            "x": 0.2985,
            "y": 0.384,
            "z": -0.6258
          }
        }
      ],
      "lstSymAPs": [],
      "mol": {
        "atoms": [
          {
            "elSymbol": "C",
            "p3d": {
              "x": -1.0244,
              "y": -0.2225,
              "z": 1.3991
            }
          },
          {
            "elSymbol": "C",
            "p3d": {
              "x": 0.3973,
              "y": -0.042,
              "z": 0.8195
            }
          },
          {
            "elSymbol": "H",
            "p3d": {
              "x": -1.5635,
              "y": -0.9908,
              "z": 0.8263
            }
          },
          {
            "elSymbol": "H",
            "p3d": {
              "x": -0.941,
              "y": -0.535,
              "z": 2.446
            }
          },
          {
            "elSymbol": "H",
            "p3d": {
              "x": -1.5586,
              "y": 0.7335,
              "z": 1.3382
            }
          },
          {
            "elSymbol": "H",
            "p3d": {
              "x": 0.9335,
              "y": 0.7221,
              "z": 1.4011
            }
          },
          {
            "elSymbol": "H",
            "p3d": {
              "x": 0.927,
              "y": -1.0102,
              "z": 0.9001
            }
          }
        ],
        "bonds": [
          {
            "atomIds": [
              0,
              1
            ],
            "bo": "SINGLE"
          },
          {
            "atomIds": [
              0,
              2
            ],
            "bo": "SINGLE"
          },
          {
            "atomIds": [
              0,
              3
            ],
            "bo": "SINGLE"
          },
          {
            "atomIds": [
              0,
              4
            ],
            "bo": "SINGLE"
          },
          {
            "atomIds": [
              1,
              5
            ],
            "bo": "SINGLE"
          },
          {
            "atomIds": [
              1,
              6
            ],
            "bo": "SINGLE"
          }
        ]
      },
      "vertexId": 349088,
      "buildingBlockId": 31,
      "buildingBlockType": "FRAGMENT",
      "isRCV": false,
      "properties": {
        "ATTACHMENT_POINTS": "2#SubRS:1:SINGLE:0.2985%0.3840%-0.6258 "
      },
      "uniquefyingPropertyKeys": [],
      "allowedMutationTypes": [
        "DELETE",
        "EXTEND",
        "CHANGEBRANCH",
        "CHANGELINK",
        "ADDLINK",
        "DELETELINK",
        "DELETECHAIN"
      ],
      "vertexType": "MolecularFragment"
    },
    {
      "lstAPs": [
        {
          "id": 585340,
          "atomPositionNumber": 0,
          "atomPositionNumberInMol": 21,
          "apClass": {
            "rule": "LPhosphiniteSubO",
            "subClass": 1,
            "bndTyp": "SINGLE"
          },
          "dirVec": {
            "x": -3.8355,
            "y": 7.5392,
            "z": 4.6611
          }
        },
        {
          "id": 585341,
          "atomPositionNumber": 0,
          "atomPositionNumberInMol": 21,
          "apClass": {
            "rule": "OPhosphiniteSub",
            "subClass": 1,
            "bndTyp": "SINGLE"
          },
          "dirVec": {
            "x": -3.5459,
            "y": 7.828,
            "z": 2.0236
          }
        }
      ],
      "lstSymAPs": [],
      "mol": {
        "atoms": [
          {
            "elSymbol": "O",
            "p3d": {
              "x": -4.0711,
              "y": 7.164,
              "z": 3.1009
            }
          }
        ],
        "bonds": []
      },
      "vertexId": 349058,
      "buildingBlockId": 47,
      "buildingBlockType": "FRAGMENT",
      "isRCV": false,
      "properties": {
        "ATTACHMENT_POINTS": "1#LPhosphiniteSubO:1:SINGLE:-3.8355%7.5392%4.6611,OPhosphiniteSub:1:SINGLE:-3.5459%7.8280%2.0236 "
      },
      "uniquefyingPropertyKeys": [],
      "allowedMutationTypes": [
        "DELETE",
        "EXTEND",
        "CHANGEBRANCH",
        "CHANGELINK",
        "ADDLINK",
        "DELETELINK",
        "DELETECHAIN"
      ],
      "vertexType": "MolecularFragment"
    },
    {
      "lstAPs": [
        {
          "id": 585384,
          "atomPositionNumber": 2,
          "atomPositionNumberInMol": 24,
          "apClass": {
            "rule": "SubArM",
            "subClass": 1,
            "bndTyp": "SINGLE"
          },
          "dirVec": {
            "x": 0.2839,
            "y": 0.3907,
            "z": -0.6271
          }
        }
      ],
      "lstSymAPs": [],
      "mol": {
        "atoms": [
          {
            "elSymbol": "H",
            "p3d": {
              "x": 1.8079,
              "y": 2.6521,
              "z": -0.6457
            }
          },
          {
            "elSymbol": "C",
            "p3d": {
              "x": 2.3292,
              "y": 1.8028,
              "z": -1.1346
            }
          },
          {
            "elSymbol": "C",
            "p3d": {
              "x": 1.6928,
              "y": 0.5701,
              "z": -1.2214
            }
          },
          {
            "elSymbol": "C",
            "p3d": {
              "x": 4.26,
              "y": 0.9161,
              "z": -2.2564
            }
          },
          {
            "elSymbol": "C",
            "p3d": {
              "x": 2.3547,
              "y": -0.5116,
              "z": -1.8205
            }
          },
          {
            "elSymbol": "C",
            "p3d": {
              "x": 3.6118,
              "y": 1.9867,
              "z": -1.654
            }
          },
          {
            "elSymbol": "C",
            "p3d": {
              "x": 3.6519,
              "y": -0.333,
              "z": -2.339
            }
          },
          {
            "elSymbol": "C",
            "p3d": {
              "x": 1.7318,
              "y": -1.7781,
              "z": -1.8989
            }
          },
          {
            "elSymbol": "H",
            "p3d": {
              "x": 4.0936,
              "y": 2.9609,
              "z": -1.5808
            }
          },
          {
            "elSymbol": "H",
            "p3d": {
              "x": 5.3077,
              "y": -1.3005,
              "z": -3.3639
            }
          },
          {
            "elSymbol": "H",
            "p3d": {
              "x": 5.2705,
              "y": 1.0583,
              "z": -2.6578
            }
          },
          {
            "elSymbol": "C",
            "p3d": {
              "x": 2.3998,
              "y": -2.8526,
              "z": -2.5007
            }
          },
          {
            "elSymbol": "H",
            "p3d": {
              "x": 0.724,
              "y": -1.9306,
              "z": -1.4908
            }
          },
          {
            "elSymbol": "H",
            "p3d": {
              "x": 1.9155,
              "y": -3.8304,
              "z": -2.576
            }
          },
          {
            "elSymbol": "C",
            "p3d": {
              "x": 3.684,
              "y": -2.6697,
              "z": -3.0355
            }
          },
          {
            "elSymbol": "H",
            "p3d": {
              "x": 4.2028,
              "y": -3.5195,
              "z": -3.4955
            }
          },
          {
            "elSymbol": "C",
            "p3d": {
              "x": 4.3092,
              "y": -1.4197,
              "z": -2.9387
            }
          }
        ],
        "bonds": [
          {
            "atomIds": [
              0,
              1
            ],
            "bo": "SINGLE"
          },
          {
            "atomIds": [
              1,
              2
            ],
            "bo": "SINGLE"
          },
          {
            "atomIds": [
              1,
              5
            ],
            "bo": "DOUBLE"
          },
          {
            "atomIds": [
              2,
              4
            ],
            "bo": "DOUBLE"
          },
          {
            "atomIds": [
              4,
              6
            ],
            "bo": "SINGLE"
          },
          {
            "atomIds": [
              3,
              5
            ],
            "bo": "SINGLE"
          },
          {
            "atomIds": [
              3,
              6
            ],
            "bo": "DOUBLE"
          },
          {
            "atomIds": [
              7,
              4
            ],
            "bo": "SINGLE"
          },
          {
            "atomIds": [
              6,
              16
            ],
            "bo": "SINGLE"
          },
          {
            "atomIds": [
              7,
              11
            ],
            "bo": "DOUBLE"
          },
          {
            "atomIds": [
              11,
              14
            ],
            "bo": "SINGLE"
          },
          {
            "atomIds": [
              14,
              16
            ],
            "bo": "DOUBLE"
          },
          {
            "atomIds": [
              3,
              10
            ],
            "bo": "SINGLE"
          },
          {
            "atomIds": [
              5,
              8
            ],
            "bo": "SINGLE"
          },
          {
            "atomIds": [
              7,
              12
            ],
            "bo": "SINGLE"
          },
          {
            "atomIds": [
              9,
              16
            ],
            "bo": "SINGLE"
          },
          {
            "atomIds": [
              14,
              15
            ],
            "bo": "SINGLE"
          },
          {
            "atomIds": [
              11,
              13
            ],
            "bo": "SINGLE"
          }
        ]
      },
      "vertexId": 502378,
      "buildingBlockId": 38,
      "buildingBlockType": "FRAGMENT",
      "isRCV": false,
      "properties": {
        "ATTACHMENT_POINTS": "3#SubArM:1:SINGLE:0.2839%0.3907%-0.6271 "
      },
      "uniquefyingPropertyKeys": [],
      "allowedMutationTypes": [
        "DELETE",
        "EXTEND",
        "CHANGEBRANCH",
        "CHANGELINK",
        "ADDLINK",
        "DELETELINK",
        "DELETECHAIN"
      ],
      "vertexType": "MolecularFragment"
    }
  ],
  "gEdges": [
    {
      "srcAPID": 585329,
      "trgAPID": 585332,
      "bondType": "SINGLE"
    },
    {
      "srcAPID": 585331,
      "trgAPID": 585336,
      "bondType": "SINGLE"
    },
    {
      "srcAPID": 585330,
      "trgAPID": 585337,
      "bondType": "SINGLE"
    },
    {
      "srcAPID": 585334,
      "trgAPID": 585338,
      "bondType": "SINGLE"
    },
    {
      "srcAPID": 585335,
      "trgAPID": 585339,
      "bondType": "SINGLE"
    },
    {
      "srcAPID": 585333,
      "trgAPID": 585340,
      "bondType": "SINGLE"
    },
    {
      "srcAPID": 585341,
      "trgAPID": 585384,
      "bondType": "SINGLE"
    }
  ],
  "gRings": [],
  "symVertices": [
    {
      "symIds": [
        349062,
        349088
      ]
    }
  ]
}

> <SMILES>
[Pt](C#O)(Cl)([P](C(C([H])([H])[H])([H])[H])(C(C([H])([H])[H])([H])[H])OC=1C([H])=C(C(=C2C1C(=C(C(=C2[H])[H])[H])[H])[H])[H])Cl

$$$$
