M00004743
  CDK     04222210243D

 53 55  0  0  0  0  0  0  0  0999 V2000
   -2.7384   -0.1647   -0.3102 Pt  0  0  0  0  0  0  0  0  0  0  0  0
   -4.6652   -0.5112   -0.5115 C   0  0  0  0  0  0  0  0  0  0  0  0
   -5.7738   -0.7514   -0.6327 O   0  0  0  0  0  0  0  0  0  0  0  0
   -3.1521    1.7776   -0.8903 O   0  0  0  0  0  0  0  0  0  0  0  0
   -3.6325    2.5255    0.2001 C   0  0  0  0  0  0  0  0  0  0  0  0
   -3.7638    3.5522   -0.1721 H   0  0  0  0  0  0  0  0  0  0  0  0
   -2.9076    2.5076    1.0239 H   0  0  0  0  0  0  0  0  0  0  0  0
   -4.5993    2.1236    0.5301 H   0  0  0  0  0  0  0  0  0  0  0  0
   -0.4940   -0.0073   -0.0386 P   0  0  0  0  0  0  0  0  0  0  0  0
   -0.2505   -0.0127    2.7634 C   0  0  0  0  0  0  0  0  0  0  0  0
   -0.9794   -0.6022    3.3744 H   0  0  0  0  0  0  0  0  0  0  0  0
   -0.6882    0.9982    2.6224 H   0  0  0  0  0  0  0  0  0  0  0  0
    1.0884    0.0818    3.5221 C   0  0  0  0  0  0  0  0  0  0  0  0
    1.8062    0.7514    3.0132 H   0  0  0  0  0  0  0  0  0  0  0  0
    0.9527    0.3948    4.5733 H   0  0  0  0  0  0  0  0  0  0  0  0
    1.9159   -1.8937    2.4130 C   0  0  0  0  0  0  0  0  0  0  0  0
    2.3189   -2.8678    2.7475 H   0  0  0  0  0  0  0  0  0  0  0  0
    2.6813   -1.3425    1.8429 H   0  0  0  0  0  0  0  0  0  0  0  0
    0.5977   -2.0484    1.6349 C   0  0  0  0  0  0  0  0  0  0  0  0
    0.7722   -2.5601    0.6588 H   0  0  0  0  0  0  0  0  0  0  0  0
   -0.1042   -2.7087    2.2071 H   0  0  0  0  0  0  0  0  0  0  0  0
   -0.0341   -0.7171    1.4764 N   0  0  0  0  0  0  0  0  0  0  0  0
    1.6907   -1.2184    3.6686 O   0  0  0  0  0  0  0  0  0  0  0  0
   -0.4250    2.6839   -0.8292 C   0  0  0  0  0  0  0  0  0  0  0  0
   -0.7320    3.5023   -0.1366 H   0  0  0  0  0  0  0  0  0  0  0  0
   -1.3603    2.3649   -1.3661 H   0  0  0  0  0  0  0  0  0  0  0  0
    0.6172    3.2107   -1.8291 C   0  0  0  0  0  0  0  0  0  0  0  0
    0.8680    2.4670   -2.6039 H   0  0  0  0  0  0  0  0  0  0  0  0
    0.3044    4.1600   -2.2999 H   0  0  0  0  0  0  0  0  0  0  0  0
    2.4247    2.5292   -0.3864 C   0  0  0  0  0  0  0  0  0  0  0  0
    3.2908    3.0278    0.0844 H   0  0  0  0  0  0  0  0  0  0  0  0
    2.7688    1.7456   -1.0821 H   0  0  0  0  0  0  0  0  0  0  0  0
    1.4249    1.9856    0.6551 C   0  0  0  0  0  0  0  0  0  0  0  0
    1.8801    1.1534    1.2367 H   0  0  0  0  0  0  0  0  0  0  0  0
    1.1805    2.7968    1.3833 H   0  0  0  0  0  0  0  0  0  0  0  0
    0.1775    1.5827   -0.0364 N   0  0  0  0  0  0  0  0  0  0  0  0
    1.8300    3.5998   -1.1436 O   0  0  0  0  0  0  0  0  0  0  0  0
   -0.5723   -1.5494   -2.3853 C   0  0  0  0  0  0  0  0  0  0  0  0
   -0.3485   -1.0709   -3.3698 H   0  0  0  0  0  0  0  0  0  0  0  0
   -1.6700   -1.4304   -2.2102 H   0  0  0  0  0  0  0  0  0  0  0  0
   -0.1890   -3.0401   -2.4390 C   0  0  0  0  0  0  0  0  0  0  0  0
   -0.4911   -3.5868   -1.5268 H   0  0  0  0  0  0  0  0  0  0  0  0
   -0.5931   -3.5471   -3.3334 H   0  0  0  0  0  0  0  0  0  0  0  0
    2.0096   -2.5642   -1.5823 C   0  0  0  0  0  0  0  0  0  0  0  0
    3.0467   -2.7691   -1.9000 H   0  0  0  0  0  0  0  0  0  0  0  0
    1.7901   -3.0726   -0.6212 H   0  0  0  0  0  0  0  0  0  0  0  0
    1.6996   -1.0547   -1.5054 C   0  0  0  0  0  0  0  0  0  0  0  0
    2.2747   -0.5795   -0.6847 H   0  0  0  0  0  0  0  0  0  0  0  0
    2.0159   -0.5618   -2.4567 H   0  0  0  0  0  0  0  0  0  0  0  0
    0.2380   -0.8774   -1.3360 N   0  0  0  0  0  0  0  0  0  0  0  0
    1.2370   -3.1808   -2.6281 O   0  0  0  0  0  0  0  0  0  0  0  0
   -2.4511   -2.0602    0.1699 C   0  0  0  0  0  0  0  0  0  0  0  0
   -2.2865   -3.1712    0.4459 N   0  0  0  0  0  0  0  0  0  0  0  0
  2  3  3  0  0  0  0
  1  2  1  0  0  0  0
  5  6  1  0  0  0  0
  5  7  1  0  0  0  0
  5  8  1  0  0  0  0
  4  5  1  0  0  0  0
  1  4  1  0  0  0  0
  1  9  1  0  0  0  0
 10 11  1  0  0  0  0
 12 10  1  0  0  0  0
 13 10  1  0  0  0  0
 14 13  1  0  0  0  0
 15 13  1  0  0  0  0
 16 17  1  0  0  0  0
 18 16  1  0  0  0  0
 19 16  1  0  0  0  0
 20 19  1  0  0  0  0
 21 19  1  0  0  0  0
 22 10  1  0  0  0  0
 23 13  1  0  0  0  0
 16 23  1  0  0  0  0
 19 22  1  0  0  0  0
  9 22  1  0  0  0  0
 24 25  1  0  0  0  0
 26 24  1  0  0  0  0
 27 24  1  0  0  0  0
 28 27  1  0  0  0  0
 29 27  1  0  0  0  0
 30 31  1  0  0  0  0
 32 30  1  0  0  0  0
 33 30  1  0  0  0  0
 34 33  1  0  0  0  0
 35 33  1  0  0  0  0
 36 24  1  0  0  0  0
 37 27  1  0  0  0  0
 30 37  1  0  0  0  0
 33 36  1  0  0  0  0
  9 36  1  0  0  0  0
 38 39  1  0  0  0  0
 40 38  1  0  0  0  0
 41 38  1  0  0  0  0
 42 41  1  0  0  0  0
 43 41  1  0  0  0  0
 44 45  1  0  0  0  0
 46 44  1  0  0  0  0
 47 44  1  0  0  0  0
 48 47  1  0  0  0  0
 49 47  1  0  0  0  0
 50 38  1  0  0  0  0
 51 41  1  0  0  0  0
 44 51  1  0  0  0  0
 47 50  1  0  0  0  0
  9 50  1  0  0  0  0
 52 53  3  0  0  0  0
  1 52  1  0  0  0  0
M  END
> <PM6_ENERGY>
-674.837

> <UID>
QLNJDNMGRACIBA-QOPQBRFMNA-N

> <FITNESS>
1.14078

> <GCODE>
5522

> <GraphENC>
5522 72_1_0,80_65_1,123_12_1,87_66_1,108902_9_1,108903_9_1,108861_9_1, 72_0_80_0_SINGLE_Xlig:0_Xlig:1,72_2_123_3_SINGLE_scaff:0_MTrisAminoPhosphine:1,72_1_87_0_SINGLE_Xlig:0_Xlig:1,123_1_108902_0_SINGLE_LTrisAminoPhosphineN:0_LAminoPhosphineCycloN:1,123_2_108903_0_SINGLE_LTrisAminoPhosphineN:0_LAminoPhosphineCycloN:1,123_0_108861_0_SINGLE_LTrisAminoPhosphineN:0_LAminoPhosphineCycloN:1, SymmetricSet [symIds=[108902, 108903, 108861]] 

> <GraphJson>
{
  "graphId": 5522,
  "gVertices": [
    {
      "lstAPs": [
        {
          "id": 143053,
          "atomPositionNumber": 0,
          "atomPositionNumberInMol": 0,
          "apClass": {
            "rule": "Xlig",
            "subClass": 0,
            "bndTyp": "SINGLE"
          },
          "dirVec": {
            "x": -2.3339,
            "y": -0.0087,
            "z": 0.8172
          }
        },
        {
          "id": 143054,
          "atomPositionNumber": 0,
          "atomPositionNumberInMol": 0,
          "apClass": {
            "rule": "Xlig",
            "subClass": 0,
            "bndTyp": "SINGLE"
          },
          "dirVec": {
            "x": 2.336,
            "y": -5.0E-4,
            "z": 0.829
          }
        },
        {
          "id": 143055,
          "atomPositionNumber": 0,
          "atomPositionNumberInMol": 0,
          "apClass": {
            "rule": "scaff",
            "subClass": 0,
            "bndTyp": "SINGLE"
          },
          "dirVec": {
            "x": -0.0095,
            "y": 0.0046,
            "z": -1.7113
          }
        }
      ],
      "lstSymAPs": [
        {
          "symIds": [
            0,
            1
          ]
        }
      ],
      "mol": {
        "atoms": [
          {
            "elSymbol": "Pt",
            "p3d": {
              "x": -0.0098,
              "y": 0.0049,
              "z": 0.6289
            }
          },
          {
            "elSymbol": "C",
            "p3d": {
              "x": -6.0E-4,
              "y": 0.0016,
              "z": 2.5609
            }
          },
          {
            "elSymbol": "O",
            "p3d": {
              "x": 0.0025,
              "y": -0.0041,
              "z": 3.6974
            }
          },
          {
            "elSymbol": "Du",
            "p3d": {
              "x": -0.007,
              "y": 1.0013,
              "z": 0.6372
            }
          },
          {
            "elSymbol": "Du",
            "p3d": {
              "x": -0.0014,
              "y": 0.9902,
              "z": 2.5698
            }
          }
        ],
        "bonds": [
          {
            "atomIds": [
              1,
              2
            ],
            "bo": "TRIPLE"
          },
          {
            "atomIds": [
              0,
              1
            ],
            "bo": "SINGLE"
          },
          {
            "atomIds": [
              3,
              0
            ],
            "bo": "SINGLE"
          },
          {
            "atomIds": [
              4,
              1
            ],
            "bo": "SINGLE"
          }
        ]
      },
      "vertexId": 72,
      "buildingBlockId": 0,
      "buildingBlockType": "SCAFFOLD",
      "isRCV": false,
      "properties": {
        "ATTACHMENT_POINTS": "1#Xlig:0:SINGLE:-2.3339%-0.0087%0.8172,Xlig:0:SINGLE:2.3360%-0.0005%0.8290,scaff:0:SINGLE:-0.0095%0.0046%-1.7113 "
      },
      "uniquefyingPropertyKeys": [],
      "allowedMutationTypes": [
        "DELETE",
        "EXTEND",
        "CHANGEBRANCH",
        "CHANGELINK",
        "ADDLINK",
        "DELETELINK",
        "DELETECHAIN"
      ],
      "vertexType": "MolecularFragment"
    },
    {
      "lstAPs": [
        {
          "id": 143056,
          "atomPositionNumber": 0,
          "atomPositionNumberInMol": 5,
          "apClass": {
            "rule": "Xlig",
            "subClass": 1,
            "bndTyp": "SINGLE"
          },
          "dirVec": {
            "x": -0.1753,
            "y": 0.0948,
            "z": -0.4464
          }
        }
      ],
      "lstSymAPs": [],
      "mol": {
        "atoms": [
          {
            "elSymbol": "O",
            "p3d": {
              "x": -0.3534,
              "y": 2.1044,
              "z": -0.7339
            }
          },
          {
            "elSymbol": "C",
            "p3d": {
              "x": -0.5345,
              "y": 2.7646,
              "z": 0.4801
            }
          },
          {
            "elSymbol": "H",
            "p3d": {
              "x": -0.3728,
              "y": 3.8337,
              "z": 0.2724
            }
          },
          {
            "elSymbol": "H",
            "p3d": {
              "x": 0.1816,
              "y": 2.4161,
              "z": 1.2384
            }
          },
          {
            "elSymbol": "H",
            "p3d": {
              "x": -1.553,
              "y": 2.6149,
              "z": 0.8489
            }
          }
        ],
        "bonds": [
          {
            "atomIds": [
              1,
              2
            ],
            "bo": "SINGLE"
          },
          {
            "atomIds": [
              1,
              3
            ],
            "bo": "SINGLE"
          },
          {
            "atomIds": [
              1,
              4
            ],
            "bo": "SINGLE"
          },
          {
            "atomIds": [
              0,
              1
            ],
            "bo": "SINGLE"
          }
        ]
      },
      "vertexId": 80,
      "buildingBlockId": 64,
      "buildingBlockType": "FRAGMENT",
      "isRCV": false,
      "properties": {
        "ATTACHMENT_POINTS": "1#Xlig:1:SINGLE:-0.1753%0.0948%-0.4464 "
      },
      "uniquefyingPropertyKeys": [],
      "allowedMutationTypes": [
        "DELETE",
        "EXTEND",
        "CHANGEBRANCH",
        "CHANGELINK",
        "ADDLINK",
        "DELETELINK",
        "DELETECHAIN"
      ],
      "vertexType": "MolecularFragment"
    },
    {
      "lstAPs": [
        {
          "id": 143057,
          "atomPositionNumber": 0,
          "atomPositionNumberInMol": 10,
          "apClass": {
            "rule": "LTrisAminoPhosphineN",
            "subClass": 0,
            "bndTyp": "SINGLE"
          },
          "dirVec": {
            "x": -1.3063,
            "y": -4.7143,
            "z": 1.6233
          }
        },
        {
          "id": 143058,
          "atomPositionNumber": 0,
          "atomPositionNumberInMol": 10,
          "apClass": {
            "rule": "LTrisAminoPhosphineN",
            "subClass": 0,
            "bndTyp": "SINGLE"
          },
          "dirVec": {
            "x": -1.2539,
            "y": -3.0796,
            "z": 3.6155
          }
        },
        {
          "id": 143059,
          "atomPositionNumber": 0,
          "atomPositionNumberInMol": 10,
          "apClass": {
            "rule": "LTrisAminoPhosphineN",
            "subClass": 0,
            "bndTyp": "SINGLE"
          },
          "dirVec": {
            "x": 1.0273,
            "y": -4.3159,
            "z": 2.6459
          }
        },
        {
          "id": 143060,
          "atomPositionNumber": 0,
          "atomPositionNumberInMol": 10,
          "apClass": {
            "rule": "MTrisAminoPhosphine",
            "subClass": 1,
            "bndTyp": "SINGLE"
          },
          "dirVec": {
            "x": -0.0574,
            "y": -1.6114,
            "z": 0.9632
          }
        }
      ],
      "lstSymAPs": [
        {
          "symIds": [
            0,
            1,
            2
          ]
        }
      ],
      "mol": {
        "atoms": [
          {
            "elSymbol": "P",
            "p3d": {
              "x": -0.3556,
              "y": -3.4241,
              "z": 2.2389
            }
          }
        ],
        "bonds": []
      },
      "vertexId": 123,
      "buildingBlockId": 11,
      "buildingBlockType": "FRAGMENT",
      "isRCV": false,
      "properties": {
        "ATTACHMENT_POINTS": "1#LTrisAminoPhosphineN:0:SINGLE:-1.3063%-4.7143%1.6233,LTrisAminoPhosphineN:0:SINGLE:-1.2539%-3.0796%3.6155,LTrisAminoPhosphineN:0:SINGLE:1.0273%-4.3159%2.6459,MTrisAminoPhosphine:1:SINGLE:-0.0574%-1.6114%0.9632 "
      },
      "uniquefyingPropertyKeys": [],
      "allowedMutationTypes": [
        "DELETE",
        "EXTEND",
        "CHANGEBRANCH",
        "CHANGELINK",
        "ADDLINK",
        "DELETELINK",
        "DELETECHAIN"
      ],
      "vertexType": "MolecularFragment"
    },
    {
      "lstAPs": [
        {
          "id": 143061,
          "atomPositionNumber": 0,
          "atomPositionNumberInMol": 53,
          "apClass": {
            "rule": "Xlig",
            "subClass": 1,
            "bndTyp": "SINGLE"
          },
          "dirVec": {
            "x": 0.0192,
            "y": -0.0048,
            "z": -0.5645
          }
        }
      ],
      "lstSymAPs": [],
      "mol": {
        "atoms": [
          {
            "elSymbol": "C",
            "p3d": {
              "x": -1.967,
              "y": -0.0075,
              "z": -0.4937
            }
          },
          {
            "elSymbol": "N",
            "p3d": {
              "x": -3.1263,
              "y": -0.0054,
              "z": -0.4354
            }
          },
          {
            "elSymbol": "Du",
            "p3d": {
              "x": -1.9744,
              "y": 0.9926,
              "z": -0.5036
            }
          }
        ],
        "bonds": [
          {
            "atomIds": [
              0,
              1
            ],
            "bo": "TRIPLE"
          },
          {
            "atomIds": [
              2,
              0
            ],
            "bo": "SINGLE"
          }
        ]
      },
      "vertexId": 87,
      "buildingBlockId": 65,
      "buildingBlockType": "FRAGMENT",
      "isRCV": false,
      "properties": {
        "ATTACHMENT_POINTS": "1#Xlig:1:SINGLE:0.0192%-0.0048%-0.5645 "
      },
      "uniquefyingPropertyKeys": [],
      "allowedMutationTypes": [
        "DELETE",
        "EXTEND",
        "CHANGEBRANCH",
        "CHANGELINK",
        "ADDLINK",
        "DELETELINK",
        "DELETECHAIN"
      ],
      "vertexType": "MolecularFragment"
    },
    {
      "lstAPs": [
        {
          "id": 143098,
          "atomPositionNumber": 12,
          "atomPositionNumberInMol": 23,
          "apClass": {
            "rule": "LAminoPhosphineCycloN",
            "subClass": 1,
            "bndTyp": "SINGLE"
          },
          "dirVec": {
            "x": 3.8318,
            "y": 4.4705,
            "z": 2.8673
          }
        }
      ],
      "lstSymAPs": [],
      "mol": {
        "atoms": [
          {
            "elSymbol": "C",
            "p3d": {
              "x": 1.6447,
              "y": 5.1042,
              "z": 4.3264
            }
          },
          {
            "elSymbol": "H",
            "p3d": {
              "x": 1.9147,
              "y": 6.0213,
              "z": 4.8479
            }
          },
          {
            "elSymbol": "H",
            "p3d": {
              "x": 1.9986,
              "y": 4.2552,
              "z": 4.9127
            }
          },
          {
            "elSymbol": "C",
            "p3d": {
              "x": 0.1515,
              "y": 5.0176,
              "z": 4.1739
            }
          },
          {
            "elSymbol": "H",
            "p3d": {
              "x": -0.1334,
              "y": 4.0848,
              "z": 3.6797
            }
          },
          {
            "elSymbol": "H",
            "p3d": {
              "x": -0.3255,
              "y": 5.0447,
              "z": 5.1478
            }
          },
          {
            "elSymbol": "C",
            "p3d": {
              "x": 0.2487,
              "y": 6.072,
              "z": 2.1008
            }
          },
          {
            "elSymbol": "H",
            "p3d": {
              "x": -0.1423,
              "y": 6.9098,
              "z": 1.5084
            }
          },
          {
            "elSymbol": "H",
            "p3d": {
              "x": -0.0446,
              "y": 5.157,
              "z": 1.5955
            }
          },
          {
            "elSymbol": "C",
            "p3d": {
              "x": 1.7465,
              "y": 6.1786,
              "z": 2.1683
            }
          },
          {
            "elSymbol": "H",
            "p3d": {
              "x": 2.17,
              "y": 6.1296,
              "z": 1.1666
            }
          },
          {
            "elSymbol": "H",
            "p3d": {
              "x": 2.031,
              "y": 7.1422,
              "z": 2.6107
            }
          },
          {
            "elSymbol": "N",
            "p3d": {
              "x": 2.2792,
              "y": 5.0823,
              "z": 2.9873
            }
          },
          {
            "elSymbol": "O",
            "p3d": {
              "x": -0.34,
              "y": 6.1108,
              "z": 3.3895
            }
          }
        ],
        "bonds": [
          {
            "atomIds": [
              0,
              1
            ],
            "bo": "SINGLE"
          },
          {
            "atomIds": [
              2,
              0
            ],
            "bo": "SINGLE"
          },
          {
            "atomIds": [
              3,
              0
            ],
            "bo": "SINGLE"
          },
          {
            "atomIds": [
              4,
              3
            ],
            "bo": "SINGLE"
          },
          {
            "atomIds": [
              5,
              3
            ],
            "bo": "SINGLE"
          },
          {
            "atomIds": [
              6,
              7
            ],
            "bo": "SINGLE"
          },
          {
            "atomIds": [
              8,
              6
            ],
            "bo": "SINGLE"
          },
          {
            "atomIds": [
              9,
              6
            ],
            "bo": "SINGLE"
          },
          {
            "atomIds": [
              10,
              9
            ],
            "bo": "SINGLE"
          },
          {
            "atomIds": [
              11,
              9
            ],
            "bo": "SINGLE"
          },
          {
            "atomIds": [
              12,
              0
            ],
            "bo": "SINGLE"
          },
          {
            "atomIds": [
              13,
              3
            ],
            "bo": "SINGLE"
          },
          {
            "atomIds": [
              6,
              13
            ],
            "bo": "SINGLE"
          },
          {
            "atomIds": [
              9,
              12
            ],
            "bo": "SINGLE"
          }
        ]
      },
      "vertexId": 108902,
      "buildingBlockId": 8,
      "buildingBlockType": "FRAGMENT",
      "isRCV": false,
      "properties": {
        "ATTACHMENT_POINTS": "13#LAminoPhosphineCycloN:1:SINGLE:3.8318%4.4705%2.8673 "
      },
      "uniquefyingPropertyKeys": [],
      "allowedMutationTypes": [
        "DELETE",
        "EXTEND",
        "CHANGEBRANCH",
        "CHANGELINK",
        "ADDLINK",
        "DELETELINK",
        "DELETECHAIN"
      ],
      "vertexType": "MolecularFragment"
    },
    {
      "lstAPs": [
        {
          "id": 143099,
          "atomPositionNumber": 12,
          "atomPositionNumberInMol": 37,
          "apClass": {
            "rule": "LAminoPhosphineCycloN",
            "subClass": 1,
            "bndTyp": "SINGLE"
          },
          "dirVec": {
            "x": 3.8318,
            "y": 4.4705,
            "z": 2.8673
          }
        }
      ],
      "lstSymAPs": [],
      "mol": {
        "atoms": [
          {
            "elSymbol": "C",
            "p3d": {
              "x": 1.6447,
              "y": 5.1042,
              "z": 4.3264
            }
          },
          {
            "elSymbol": "H",
            "p3d": {
              "x": 1.9147,
              "y": 6.0213,
              "z": 4.8479
            }
          },
          {
            "elSymbol": "H",
            "p3d": {
              "x": 1.9986,
              "y": 4.2552,
              "z": 4.9127
            }
          },
          {
            "elSymbol": "C",
            "p3d": {
              "x": 0.1515,
              "y": 5.0176,
              "z": 4.1739
            }
          },
          {
            "elSymbol": "H",
            "p3d": {
              "x": -0.1334,
              "y": 4.0848,
              "z": 3.6797
            }
          },
          {
            "elSymbol": "H",
            "p3d": {
              "x": -0.3255,
              "y": 5.0447,
              "z": 5.1478
            }
          },
          {
            "elSymbol": "C",
            "p3d": {
              "x": 0.2487,
              "y": 6.072,
              "z": 2.1008
            }
          },
          {
            "elSymbol": "H",
            "p3d": {
              "x": -0.1423,
              "y": 6.9098,
              "z": 1.5084
            }
          },
          {
            "elSymbol": "H",
            "p3d": {
              "x": -0.0446,
              "y": 5.157,
              "z": 1.5955
            }
          },
          {
            "elSymbol": "C",
            "p3d": {
              "x": 1.7465,
              "y": 6.1786,
              "z": 2.1683
            }
          },
          {
            "elSymbol": "H",
            "p3d": {
              "x": 2.17,
              "y": 6.1296,
              "z": 1.1666
            }
          },
          {
            "elSymbol": "H",
            "p3d": {
              "x": 2.031,
              "y": 7.1422,
              "z": 2.6107
            }
          },
          {
            "elSymbol": "N",
            "p3d": {
              "x": 2.2792,
              "y": 5.0823,
              "z": 2.9873
            }
          },
          {
            "elSymbol": "O",
            "p3d": {
              "x": -0.34,
              "y": 6.1108,
              "z": 3.3895
            }
          }
        ],
        "bonds": [
          {
            "atomIds": [
              0,
              1
            ],
            "bo": "SINGLE"
          },
          {
            "atomIds": [
              2,
              0
            ],
            "bo": "SINGLE"
          },
          {
            "atomIds": [
              3,
              0
            ],
            "bo": "SINGLE"
          },
          {
            "atomIds": [
              4,
              3
            ],
            "bo": "SINGLE"
          },
          {
            "atomIds": [
              5,
              3
            ],
            "bo": "SINGLE"
          },
          {
            "atomIds": [
              6,
              7
            ],
            "bo": "SINGLE"
          },
          {
            "atomIds": [
              8,
              6
            ],
            "bo": "SINGLE"
          },
          {
            "atomIds": [
              9,
              6
            ],
            "bo": "SINGLE"
          },
          {
            "atomIds": [
              10,
              9
            ],
            "bo": "SINGLE"
          },
          {
            "atomIds": [
              11,
              9
            ],
            "bo": "SINGLE"
          },
          {
            "atomIds": [
              12,
              0
            ],
            "bo": "SINGLE"
          },
          {
            "atomIds": [
              13,
              3
            ],
            "bo": "SINGLE"
          },
          {
            "atomIds": [
              6,
              13
            ],
            "bo": "SINGLE"
          },
          {
            "atomIds": [
              9,
              12
            ],
            "bo": "SINGLE"
          }
        ]
      },
      "vertexId": 108903,
      "buildingBlockId": 8,
      "buildingBlockType": "FRAGMENT",
      "isRCV": false,
      "properties": {
        "ATTACHMENT_POINTS": "13#LAminoPhosphineCycloN:1:SINGLE:3.8318%4.4705%2.8673 "
      },
      "uniquefyingPropertyKeys": [],
      "allowedMutationTypes": [
        "DELETE",
        "EXTEND",
        "CHANGEBRANCH",
        "CHANGELINK",
        "ADDLINK",
        "DELETELINK",
        "DELETECHAIN"
      ],
      "vertexType": "MolecularFragment"
    },
    {
      "lstAPs": [
        {
          "id": 143100,
          "atomPositionNumber": 12,
          "atomPositionNumberInMol": 51,
          "apClass": {
            "rule": "LAminoPhosphineCycloN",
            "subClass": 1,
            "bndTyp": "SINGLE"
          },
          "dirVec": {
            "x": 3.8318,
            "y": 4.4705,
            "z": 2.8673
          }
        }
      ],
      "lstSymAPs": [],
      "mol": {
        "atoms": [
          {
            "elSymbol": "C",
            "p3d": {
              "x": 1.6447,
              "y": 5.1042,
              "z": 4.3264
            }
          },
          {
            "elSymbol": "H",
            "p3d": {
              "x": 1.9147,
              "y": 6.0213,
              "z": 4.8479
            }
          },
          {
            "elSymbol": "H",
            "p3d": {
              "x": 1.9986,
              "y": 4.2552,
              "z": 4.9127
            }
          },
          {
            "elSymbol": "C",
            "p3d": {
              "x": 0.1515,
              "y": 5.0176,
              "z": 4.1739
            }
          },
          {
            "elSymbol": "H",
            "p3d": {
              "x": -0.1334,
              "y": 4.0848,
              "z": 3.6797
            }
          },
          {
            "elSymbol": "H",
            "p3d": {
              "x": -0.3255,
              "y": 5.0447,
              "z": 5.1478
            }
          },
          {
            "elSymbol": "C",
            "p3d": {
              "x": 0.2487,
              "y": 6.072,
              "z": 2.1008
            }
          },
          {
            "elSymbol": "H",
            "p3d": {
              "x": -0.1423,
              "y": 6.9098,
              "z": 1.5084
            }
          },
          {
            "elSymbol": "H",
            "p3d": {
              "x": -0.0446,
              "y": 5.157,
              "z": 1.5955
            }
          },
          {
            "elSymbol": "C",
            "p3d": {
              "x": 1.7465,
              "y": 6.1786,
              "z": 2.1683
            }
          },
          {
            "elSymbol": "H",
            "p3d": {
              "x": 2.17,
              "y": 6.1296,
              "z": 1.1666
            }
          },
          {
            "elSymbol": "H",
            "p3d": {
              "x": 2.031,
              "y": 7.1422,
              "z": 2.6107
            }
          },
          {
            "elSymbol": "N",
            "p3d": {
              "x": 2.2792,
              "y": 5.0823,
              "z": 2.9873
            }
          },
          {
            "elSymbol": "O",
            "p3d": {
              "x": -0.34,
              "y": 6.1108,
              "z": 3.3895
            }
          }
        ],
        "bonds": [
          {
            "atomIds": [
              0,
              1
            ],
            "bo": "SINGLE"
          },
          {
            "atomIds": [
              2,
              0
            ],
            "bo": "SINGLE"
          },
          {
            "atomIds": [
              3,
              0
            ],
            "bo": "SINGLE"
          },
          {
            "atomIds": [
              4,
              3
            ],
            "bo": "SINGLE"
          },
          {
            "atomIds": [
              5,
              3
            ],
            "bo": "SINGLE"
          },
          {
            "atomIds": [
              6,
              7
            ],
            "bo": "SINGLE"
          },
          {
            "atomIds": [
              8,
              6
            ],
            "bo": "SINGLE"
          },
          {
            "atomIds": [
              9,
              6
            ],
            "bo": "SINGLE"
          },
          {
            "atomIds": [
              10,
              9
            ],
            "bo": "SINGLE"
          },
          {
            "atomIds": [
              11,
              9
            ],
            "bo": "SINGLE"
          },
          {
            "atomIds": [
              12,
              0
            ],
            "bo": "SINGLE"
          },
          {
            "atomIds": [
              13,
              3
            ],
            "bo": "SINGLE"
          },
          {
            "atomIds": [
              6,
              13
            ],
            "bo": "SINGLE"
          },
          {
            "atomIds": [
              9,
              12
            ],
            "bo": "SINGLE"
          }
        ]
      },
      "vertexId": 108861,
      "buildingBlockId": 8,
      "buildingBlockType": "FRAGMENT",
      "isRCV": false,
      "properties": {
        "ATTACHMENT_POINTS": "13#LAminoPhosphineCycloN:1:SINGLE:3.8318%4.4705%2.8673 "
      },
      "uniquefyingPropertyKeys": [],
      "allowedMutationTypes": [
        "DELETE",
        "EXTEND",
        "CHANGEBRANCH",
        "CHANGELINK",
        "ADDLINK",
        "DELETELINK",
        "DELETECHAIN"
      ],
      "vertexType": "MolecularFragment"
    }
  ],
  "gEdges": [
    {
      "srcAPID": 143053,
      "trgAPID": 143056,
      "bondType": "SINGLE"
    },
    {
      "srcAPID": 143055,
      "trgAPID": 143060,
      "bondType": "SINGLE"
    },
    {
      "srcAPID": 143054,
      "trgAPID": 143061,
      "bondType": "SINGLE"
    },
    {
      "srcAPID": 143058,
      "trgAPID": 143098,
      "bondType": "SINGLE"
    },
    {
      "srcAPID": 143059,
      "trgAPID": 143099,
      "bondType": "SINGLE"
    },
    {
      "srcAPID": 143057,
      "trgAPID": 143100,
      "bondType": "SINGLE"
    }
  ],
  "gRings": [],
  "symVertices": [
    {
      "symIds": [
        108902,
        108903,
        108861
      ]
    }
  ]
}

> <SMILES>
[Pt](C#O)(OC([H])([H])[H])([P](N1C([H])([H])C([H])([H])OC([H])([H])C1([H])[H])(N2C([H])([H])C([H])([H])OC([H])([H])C2([H])[H])N3C([H])([H])C([H])([H])OC([H])([H])C3([H])[H])C#N

$$$$
