M00020661
  CDK     04222216043D

 51 55  0  0  0  0  0  0  0  0999 V2000
   -2.7329    1.0836    0.3371 Pt  0  0  0  0  0  0  0  0  0  0  0  0
   -4.6285    1.6339    0.4022 C   0  0  0  0  0  0  0  0  0  0  0  0
   -5.7035    2.0068    0.4446 O   0  0  0  0  0  0  0  0  0  0  0  0
   -2.7315    3.4114    0.1757 S   0  0  0  0  0  0  0  0  0  0  0  0
   -2.0093    3.7737    1.7991 C   0  0  0  0  0  0  0  0  0  0  0  0
   -0.9131    3.7034    1.7536 H   0  0  0  0  0  0  0  0  0  0  0  0
   -2.3776    3.0842    2.5655 H   0  0  0  0  0  0  0  0  0  0  0  0
   -2.2789    4.7967    2.0883 H   0  0  0  0  0  0  0  0  0  0  0  0
    0.3237   -0.9303    2.1511 C   0  0  0  0  0  0  0  0  0  0  0  0
   -0.4767   -1.8406    2.8467 C   0  0  0  0  0  0  0  0  0  0  0  0
   -1.2891   -2.3644    2.3318 H   0  0  0  0  0  0  0  0  0  0  0  0
   -0.1976   -2.0707    4.1953 C   0  0  0  0  0  0  0  0  0  0  0  0
   -0.8075   -2.7783    4.7592 H   0  0  0  0  0  0  0  0  0  0  0  0
    0.8572   -1.3957    4.8207 C   0  0  0  0  0  0  0  0  0  0  0  0
    1.0618   -1.5728    5.8768 H   0  0  0  0  0  0  0  0  0  0  0  0
    1.6521   -0.4975    4.1038 C   0  0  0  0  0  0  0  0  0  0  0  0
    2.4691    0.0233    4.6053 H   0  0  0  0  0  0  0  0  0  0  0  0
    1.4080   -0.2508    2.7426 C   0  0  0  0  0  0  0  0  0  0  0  0
    2.2570    0.6711    1.9729 C   0  0  0  0  0  0  0  0  0  0  0  0
    3.6571    0.6343    2.0859 C   0  0  0  0  0  0  0  0  0  0  0  0
    4.1221   -0.0970    2.7490 H   0  0  0  0  0  0  0  0  0  0  0  0
    4.4569    1.5138    1.3516 C   0  0  0  0  0  0  0  0  0  0  0  0
    5.5416    1.4680    1.4528 H   0  0  0  0  0  0  0  0  0  0  0  0
    3.8799    2.4495    0.4850 C   0  0  0  0  0  0  0  0  0  0  0  0
    4.5125    3.1321   -0.0837 H   0  0  0  0  0  0  0  0  0  0  0  0
    2.4922    2.5087    0.3409 C   0  0  0  0  0  0  0  0  0  0  0  0
    2.0146    3.2258   -0.3286 H   0  0  0  0  0  0  0  0  0  0  0  0
    1.7129    1.6202    1.0861 C   0  0  0  0  0  0  0  0  0  0  0  0
    0.0872   -0.8259    0.7708 O   0  0  0  0  0  0  0  0  0  0  0  0
    0.3186    1.8086    1.0072 O   0  0  0  0  0  0  0  0  0  0  0  0
   -0.5501    0.6212    0.2355 P   0  0  0  0  0  0  0  0  0  0  0  0
    0.1153    0.5596   -1.2894 O   0  0  0  0  0  0  0  0  0  0  0  0
   -2.3342    1.4527   -2.1268 H   0  0  0  0  0  0  0  0  0  0  0  0
   -1.9327    0.5554   -2.6122 C   0  0  0  0  0  0  0  0  0  0  0  0
   -0.7302   -0.0155   -2.2680 C   0  0  0  0  0  0  0  0  0  0  0  0
   -2.1795   -1.1209   -4.3633 C   0  0  0  0  0  0  0  0  0  0  0  0
   -0.1772   -1.1610   -2.9279 C   0  0  0  0  0  0  0  0  0  0  0  0
   -2.6636   -0.0278   -3.6892 C   0  0  0  0  0  0  0  0  0  0  0  0
   -0.9261   -1.7122   -4.0016 C   0  0  0  0  0  0  0  0  0  0  0  0
    1.0668   -1.7521   -2.5502 C   0  0  0  0  0  0  0  0  0  0  0  0
   -3.6181    0.4221   -3.9656 H   0  0  0  0  0  0  0  0  0  0  0  0
   -0.9774   -3.2744   -5.5131 H   0  0  0  0  0  0  0  0  0  0  0  0
   -2.7436   -1.5621   -5.1851 H   0  0  0  0  0  0  0  0  0  0  0  0
    1.5405   -2.8475   -3.2282 C   0  0  0  0  0  0  0  0  0  0  0  0
    1.6178   -1.3144   -1.7150 H   0  0  0  0  0  0  0  0  0  0  0  0
    2.4855   -3.3114   -2.9490 H   0  0  0  0  0  0  0  0  0  0  0  0
    0.7970   -3.4016   -4.3110 C   0  0  0  0  0  0  0  0  0  0  0  0
    1.1996   -4.2717   -4.8296 H   0  0  0  0  0  0  0  0  0  0  0  0
   -0.4031   -2.8523   -4.6895 C   0  0  0  0  0  0  0  0  0  0  0  0
   -3.0222   -0.8914    0.4890 C   0  0  0  0  0  0  0  0  0  0  0  0
   -3.2435   -2.0195    0.6009 N   0  0  0  0  0  0  0  0  0  0  0  0
  2  3  3  0  0  0  0
  1  2  1  0  0  0  0
  5  6  1  0  0  0  0
  5  7  1  0  0  0  0
  5  8  1  0  0  0  0
  4  5  1  0  0  0  0
  1  4  1  0  0  0  0
  9 10  2  0  0  0  0
 10 11  1  0  0  0  0
 12 10  1  0  0  0  0
 13 12  1  0  0  0  0
 14 12  2  0  0  0  0
 15 14  1  0  0  0  0
 16 14  1  0  0  0  0
 16 18  2  0  0  0  0
 17 16  1  0  0  0  0
 18  9  1  0  0  0  0
 19 18  1  0  0  0  0
 20 19  2  0  0  0  0
 21 20  1  0  0  0  0
 22 20  1  0  0  0  0
 23 22  1  0  0  0  0
 24 22  2  0  0  0  0
 25 24  1  0  0  0  0
 26 24  1  0  0  0  0
 26 28  2  0  0  0  0
 27 26  1  0  0  0  0
 28 19  1  0  0  0  0
 29  9  1  0  0  0  0
 29 31  1  0  0  0  0
 30 28  1  0  0  0  0
 30 31  1  0  0  0  0
  1 31  1  0  0  0  0
 31 32  1  0  0  0  0
 33 34  1  0  0  0  0
 34 35  1  0  0  0  0
 34 38  2  0  0  0  0
 35 37  2  0  0  0  0
 37 39  1  0  0  0  0
 36 38  1  0  0  0  0
 36 39  2  0  0  0  0
 40 37  1  0  0  0  0
 39 49  1  0  0  0  0
 40 44  2  0  0  0  0
 44 47  1  0  0  0  0
 47 49  2  0  0  0  0
 36 43  1  0  0  0  0
 38 41  1  0  0  0  0
 40 45  1  0  0  0  0
 42 49  1  0  0  0  0
 47 48  1  0  0  0  0
 44 46  1  0  0  0  0
 32 35  1  0  0  0  0
 50 51  3  0  0  0  0
  1 50  1  0  0  0  0
M  END
> <PM6_ENERGY>
-136.964

> <UID>
ZCRMZSWFCJHRCF-ZKAWUVQLNA-M

> <FITNESS>
1.13863

> <GCODE>
22022

> <GraphENC>
22022 72_1_0,79_64_1,110_49_1,87_66_1,384695_52_1,528908_39_1, 72_0_79_0_SINGLE_Xlig:0_Xlig:1,72_2_110_1_SINGLE_scaff:0_MPhosphite:1,72_1_87_0_SINGLE_Xlig:0_Xlig:1,110_0_384695_0_SINGLE_LPhosphiteSubO:0_LPhosphiteSubO:1,384695_1_528908_0_SINGLE_OPhosphiteSub:1_SubArM:1, 

> <GraphJson>
{
  "graphId": 22022,
  "gVertices": [
    {
      "lstAPs": [
        {
          "id": 603388,
          "atomPositionNumber": 0,
          "atomPositionNumberInMol": 0,
          "apClass": {
            "rule": "Xlig",
            "subClass": 0,
            "bndTyp": "SINGLE"
          },
          "dirVec": {
            "x": -2.3339,
            "y": -0.0087,
            "z": 0.8172
          }
        },
        {
          "id": 603389,
          "atomPositionNumber": 0,
          "atomPositionNumberInMol": 0,
          "apClass": {
            "rule": "Xlig",
            "subClass": 0,
            "bndTyp": "SINGLE"
          },
          "dirVec": {
            "x": 2.336,
            "y": -5.0E-4,
            "z": 0.829
          }
        },
        {
          "id": 603390,
          "atomPositionNumber": 0,
          "atomPositionNumberInMol": 0,
          "apClass": {
            "rule": "scaff",
            "subClass": 0,
            "bndTyp": "SINGLE"
          },
          "dirVec": {
            "x": -0.0095,
            "y": 0.0046,
            "z": -1.7113
          }
        }
      ],
      "lstSymAPs": [
        {
          "symIds": [
            0,
            1
          ]
        }
      ],
      "mol": {
        "atoms": [
          {
            "elSymbol": "Pt",
            "p3d": {
              "x": -0.0098,
              "y": 0.0049,
              "z": 0.6289
            }
          },
          {
            "elSymbol": "C",
            "p3d": {
              "x": -6.0E-4,
              "y": 0.0016,
              "z": 2.5609
            }
          },
          {
            "elSymbol": "O",
            "p3d": {
              "x": 0.0025,
              "y": -0.0041,
              "z": 3.6974
            }
          },
          {
            "elSymbol": "Du",
            "p3d": {
              "x": -0.007,
              "y": 1.0013,
              "z": 0.6372
            }
          },
          {
            "elSymbol": "Du",
            "p3d": {
              "x": -0.0014,
              "y": 0.9902,
              "z": 2.5698
            }
          }
        ],
        "bonds": [
          {
            "atomIds": [
              1,
              2
            ],
            "bo": "TRIPLE"
          },
          {
            "atomIds": [
              0,
              1
            ],
            "bo": "SINGLE"
          },
          {
            "atomIds": [
              3,
              0
            ],
            "bo": "SINGLE"
          },
          {
            "atomIds": [
              4,
              1
            ],
            "bo": "SINGLE"
          }
        ]
      },
      "vertexId": 72,
      "buildingBlockId": 0,
      "buildingBlockType": "SCAFFOLD",
      "isRCV": false,
      "properties": {
        "ATTACHMENT_POINTS": "1#Xlig:0:SINGLE:-2.3339%-0.0087%0.8172,Xlig:0:SINGLE:2.3360%-0.0005%0.8290,scaff:0:SINGLE:-0.0095%0.0046%-1.7113 "
      },
      "uniquefyingPropertyKeys": [],
      "allowedMutationTypes": [
        "DELETE",
        "EXTEND",
        "CHANGEBRANCH",
        "CHANGELINK",
        "ADDLINK",
        "DELETELINK",
        "DELETECHAIN"
      ],
      "vertexType": "MolecularFragment"
    },
    {
      "lstAPs": [
        {
          "id": 603391,
          "atomPositionNumber": 0,
          "atomPositionNumberInMol": 5,
          "apClass": {
            "rule": "Xlig",
            "subClass": 1,
            "bndTyp": "SINGLE"
          },
          "dirVec": {
            "x": -0.102,
            "y": 0.0185,
            "z": -1.0265
          }
        }
      ],
      "lstSymAPs": [],
      "mol": {
        "atoms": [
          {
            "elSymbol": "S",
            "p3d": {
              "x": -0.3267,
              "y": 2.3403,
              "z": -1.0022
            }
          },
          {
            "elSymbol": "C",
            "p3d": {
              "x": -0.626,
              "y": 2.4866,
              "z": 0.7805
            }
          },
          {
            "elSymbol": "H",
            "p3d": {
              "x": 0.1766,
              "y": 3.089,
              "z": 1.2414
            }
          },
          {
            "elSymbol": "H",
            "p3d": {
              "x": -0.651,
              "y": 1.5065,
              "z": 1.2643
            }
          },
          {
            "elSymbol": "H",
            "p3d": {
              "x": -1.5658,
              "y": 2.981,
              "z": 0.9515
            }
          }
        ],
        "bonds": [
          {
            "atomIds": [
              1,
              2
            ],
            "bo": "SINGLE"
          },
          {
            "atomIds": [
              1,
              3
            ],
            "bo": "SINGLE"
          },
          {
            "atomIds": [
              1,
              4
            ],
            "bo": "SINGLE"
          },
          {
            "atomIds": [
              0,
              1
            ],
            "bo": "SINGLE"
          }
        ]
      },
      "vertexId": 79,
      "buildingBlockId": 63,
      "buildingBlockType": "FRAGMENT",
      "isRCV": false,
      "properties": {
        "ATTACHMENT_POINTS": "1#Xlig:1:SINGLE:-0.1020%0.0185%-1.0265 "
      },
      "uniquefyingPropertyKeys": [],
      "allowedMutationTypes": [
        "DELETE",
        "EXTEND",
        "CHANGEBRANCH",
        "CHANGELINK",
        "ADDLINK",
        "DELETELINK",
        "DELETECHAIN"
      ],
      "vertexType": "MolecularFragment"
    },
    {
      "lstAPs": [
        {
          "id": 603392,
          "atomPositionNumber": 22,
          "atomPositionNumberInMol": 32,
          "apClass": {
            "rule": "LPhosphiteSubO",
            "subClass": 0,
            "bndTyp": "SINGLE"
          },
          "dirVec": {
            "x": 6.6821,
            "y": 5.3677,
            "z": 17.7965
          }
        },
        {
          "id": 603393,
          "atomPositionNumber": 22,
          "atomPositionNumberInMol": 32,
          "apClass": {
            "rule": "MPhosphite",
            "subClass": 1,
            "bndTyp": "SINGLE"
          },
          "dirVec": {
            "x": 5.2115,
            "y": 8.219,
            "z": 18.2686
          }
        }
      ],
      "lstSymAPs": [],
      "mol": {
        "atoms": [
          {
            "elSymbol": "C",
            "p3d": {
              "x": 8.868,
              "y": 7.7904,
              "z": 19.5309
            }
          },
          {
            "elSymbol": "C",
            "p3d": {
              "x": 8.6758,
              "y": 8.541,
              "z": 20.6816
            }
          },
          {
            "elSymbol": "H",
            "p3d": {
              "x": 7.7959,
              "y": 8.3781,
              "z": 21.2982
            }
          },
          {
            "elSymbol": "C",
            "p3d": {
              "x": 9.6226,
              "y": 9.508,
              "z": 21.0124
            }
          },
          {
            "elSymbol": "H",
            "p3d": {
              "x": 9.4801,
              "y": 10.1014,
              "z": 21.9119
            }
          },
          {
            "elSymbol": "C",
            "p3d": {
              "x": 10.6714,
              "y": 9.7257,
              "z": 20.2615
            }
          },
          {
            "elSymbol": "H",
            "p3d": {
              "x": 11.369,
              "y": 10.5105,
              "z": 20.5337
            }
          },
          {
            "elSymbol": "C",
            "p3d": {
              "x": 10.8922,
              "y": 8.9513,
              "z": 19.0933
            }
          },
          {
            "elSymbol": "H",
            "p3d": {
              "x": 11.7788,
              "y": 9.1364,
              "z": 18.5012
            }
          },
          {
            "elSymbol": "C",
            "p3d": {
              "x": 9.9896,
              "y": 7.9623,
              "z": 18.7237
            }
          },
          {
            "elSymbol": "C",
            "p3d": {
              "x": 10.1857,
              "y": 7.1333,
              "z": 17.5283
            }
          },
          {
            "elSymbol": "C",
            "p3d": {
              "x": 11.42,
              "y": 6.6249,
              "z": 17.1632
            }
          },
          {
            "elSymbol": "H",
            "p3d": {
              "x": 12.2741,
              "y": 6.8237,
              "z": 17.826
            }
          },
          {
            "elSymbol": "C",
            "p3d": {
              "x": 11.6652,
              "y": 5.8687,
              "z": 16.0429
            }
          },
          {
            "elSymbol": "H",
            "p3d": {
              "x": 12.6727,
              "y": 5.5494,
              "z": 15.7739
            }
          },
          {
            "elSymbol": "C",
            "p3d": {
              "x": 10.5758,
              "y": 5.5431,
              "z": 15.2313
            }
          },
          {
            "elSymbol": "H",
            "p3d": {
              "x": 10.7121,
              "y": 4.8845,
              "z": 14.3736
            }
          },
          {
            "elSymbol": "C",
            "p3d": {
              "x": 9.3214,
              "y": 6.0404,
              "z": 15.5538
            }
          },
          {
            "elSymbol": "H",
            "p3d": {
              "x": 8.4837,
              "y": 5.8344,
              "z": 14.9027
            }
          },
          {
            "elSymbol": "C",
            "p3d": {
              "x": 9.1581,
              "y": 6.8298,
              "z": 16.6773
            }
          },
          {
            "elSymbol": "O",
            "p3d": {
              "x": 7.9608,
              "y": 6.7634,
              "z": 19.2501
            }
          },
          {
            "elSymbol": "O",
            "p3d": {
              "x": 7.8839,
              "y": 7.3746,
              "z": 16.893
            }
          },
          {
            "elSymbol": "P",
            "p3d": {
              "x": 6.9287,
              "y": 6.8843,
              "z": 18.0447
            }
          }
        ],
        "bonds": [
          {
            "atomIds": [
              0,
              1
            ],
            "bo": "DOUBLE"
          },
          {
            "atomIds": [
              1,
              2
            ],
            "bo": "SINGLE"
          },
          {
            "atomIds": [
              3,
              1
            ],
            "bo": "SINGLE"
          },
          {
            "atomIds": [
              4,
              3
            ],
            "bo": "SINGLE"
          },
          {
            "atomIds": [
              5,
              3
            ],
            "bo": "DOUBLE"
          },
          {
            "atomIds": [
              6,
              5
            ],
            "bo": "SINGLE"
          },
          {
            "atomIds": [
              7,
              5
            ],
            "bo": "SINGLE"
          },
          {
            "atomIds": [
              7,
              9
            ],
            "bo": "DOUBLE"
          },
          {
            "atomIds": [
              8,
              7
            ],
            "bo": "SINGLE"
          },
          {
            "atomIds": [
              9,
              0
            ],
            "bo": "SINGLE"
          },
          {
            "atomIds": [
              10,
              9
            ],
            "bo": "SINGLE"
          },
          {
            "atomIds": [
              11,
              10
            ],
            "bo": "DOUBLE"
          },
          {
            "atomIds": [
              12,
              11
            ],
            "bo": "SINGLE"
          },
          {
            "atomIds": [
              13,
              11
            ],
            "bo": "SINGLE"
          },
          {
            "atomIds": [
              14,
              13
            ],
            "bo": "SINGLE"
          },
          {
            "atomIds": [
              15,
              13
            ],
            "bo": "DOUBLE"
          },
          {
            "atomIds": [
              16,
              15
            ],
            "bo": "SINGLE"
          },
          {
            "atomIds": [
              17,
              15
            ],
            "bo": "SINGLE"
          },
          {
            "atomIds": [
              17,
              19
            ],
            "bo": "DOUBLE"
          },
          {
            "atomIds": [
              18,
              17
            ],
            "bo": "SINGLE"
          },
          {
            "atomIds": [
              19,
              10
            ],
            "bo": "SINGLE"
          },
          {
            "atomIds": [
              20,
              0
            ],
            "bo": "SINGLE"
          },
          {
            "atomIds": [
              20,
              22
            ],
            "bo": "SINGLE"
          },
          {
            "atomIds": [
              21,
              19
            ],
            "bo": "SINGLE"
          },
          {
            "atomIds": [
              21,
              22
            ],
            "bo": "SINGLE"
          }
        ]
      },
      "vertexId": 110,
      "buildingBlockId": 48,
      "buildingBlockType": "FRAGMENT",
      "isRCV": false,
      "properties": {
        "ATTACHMENT_POINTS": "23#LPhosphiteSubO:0:SINGLE:6.6821%5.3677%17.7965,MPhosphite:1:SINGLE:5.2115%8.2190%18.2686 "
      },
      "uniquefyingPropertyKeys": [],
      "allowedMutationTypes": [
        "DELETE",
        "EXTEND",
        "CHANGEBRANCH",
        "CHANGELINK",
        "ADDLINK",
        "DELETELINK",
        "DELETECHAIN"
      ],
      "vertexType": "MolecularFragment"
    },
    {
      "lstAPs": [
        {
          "id": 603394,
          "atomPositionNumber": 0,
          "atomPositionNumberInMol": 51,
          "apClass": {
            "rule": "Xlig",
            "subClass": 1,
            "bndTyp": "SINGLE"
          },
          "dirVec": {
            "x": 0.0192,
            "y": -0.0048,
            "z": -0.5645
          }
        }
      ],
      "lstSymAPs": [],
      "mol": {
        "atoms": [
          {
            "elSymbol": "C",
            "p3d": {
              "x": -1.967,
              "y": -0.0075,
              "z": -0.4937
            }
          },
          {
            "elSymbol": "N",
            "p3d": {
              "x": -3.1263,
              "y": -0.0054,
              "z": -0.4354
            }
          },
          {
            "elSymbol": "Du",
            "p3d": {
              "x": -1.9744,
              "y": 0.9926,
              "z": -0.5036
            }
          }
        ],
        "bonds": [
          {
            "atomIds": [
              0,
              1
            ],
            "bo": "TRIPLE"
          },
          {
            "atomIds": [
              2,
              0
            ],
            "bo": "SINGLE"
          }
        ]
      },
      "vertexId": 87,
      "buildingBlockId": 65,
      "buildingBlockType": "FRAGMENT",
      "isRCV": false,
      "properties": {
        "ATTACHMENT_POINTS": "1#Xlig:1:SINGLE:0.0192%-0.0048%-0.5645 "
      },
      "uniquefyingPropertyKeys": [],
      "allowedMutationTypes": [
        "DELETE",
        "EXTEND",
        "CHANGEBRANCH",
        "CHANGELINK",
        "ADDLINK",
        "DELETELINK",
        "DELETECHAIN"
      ],
      "vertexType": "MolecularFragment"
    },
    {
      "lstAPs": [
        {
          "id": 603395,
          "atomPositionNumber": 0,
          "atomPositionNumberInMol": 33,
          "apClass": {
            "rule": "LPhosphiteSubO",
            "subClass": 1,
            "bndTyp": "SINGLE"
          },
          "dirVec": {
            "x": 0.7035,
            "y": 2.9119,
            "z": 2.8175
          }
        },
        {
          "id": 603396,
          "atomPositionNumber": 0,
          "atomPositionNumberInMol": 33,
          "apClass": {
            "rule": "OPhosphiteSub",
            "subClass": 1,
            "bndTyp": "SINGLE"
          },
          "dirVec": {
            "x": 0.0564,
            "y": 5.2897,
            "z": 1.9394
          }
        }
      ],
      "lstSymAPs": [],
      "mol": {
        "atoms": [
          {
            "elSymbol": "O",
            "p3d": {
              "x": -0.1418,
              "y": 4.2412,
              "z": 2.9314
            }
          }
        ],
        "bonds": []
      },
      "vertexId": 384695,
      "buildingBlockId": 51,
      "buildingBlockType": "FRAGMENT",
      "isRCV": false,
      "properties": {
        "ATTACHMENT_POINTS": "1#LPhosphiteSubO:1:SINGLE:0.7035%2.9119%2.8175,OPhosphiteSub:1:SINGLE:0.0564%5.2897%1.9394 "
      },
      "uniquefyingPropertyKeys": [],
      "allowedMutationTypes": [
        "DELETE",
        "EXTEND",
        "CHANGEBRANCH",
        "CHANGELINK",
        "ADDLINK",
        "DELETELINK",
        "DELETECHAIN"
      ],
      "vertexType": "MolecularFragment"
    },
    {
      "lstAPs": [
        {
          "id": 603427,
          "atomPositionNumber": 2,
          "atomPositionNumberInMol": 36,
          "apClass": {
            "rule": "SubArM",
            "subClass": 1,
            "bndTyp": "SINGLE"
          },
          "dirVec": {
            "x": 0.2839,
            "y": 0.3907,
            "z": -0.6271
          }
        }
      ],
      "lstSymAPs": [],
      "mol": {
        "atoms": [
          {
            "elSymbol": "H",
            "p3d": {
              "x": 1.8079,
              "y": 2.6521,
              "z": -0.6457
            }
          },
          {
            "elSymbol": "C",
            "p3d": {
              "x": 2.3292,
              "y": 1.8028,
              "z": -1.1346
            }
          },
          {
            "elSymbol": "C",
            "p3d": {
              "x": 1.6928,
              "y": 0.5701,
              "z": -1.2214
            }
          },
          {
            "elSymbol": "C",
            "p3d": {
              "x": 4.26,
              "y": 0.9161,
              "z": -2.2564
            }
          },
          {
            "elSymbol": "C",
            "p3d": {
              "x": 2.3547,
              "y": -0.5116,
              "z": -1.8205
            }
          },
          {
            "elSymbol": "C",
            "p3d": {
              "x": 3.6118,
              "y": 1.9867,
              "z": -1.654
            }
          },
          {
            "elSymbol": "C",
            "p3d": {
              "x": 3.6519,
              "y": -0.333,
              "z": -2.339
            }
          },
          {
            "elSymbol": "C",
            "p3d": {
              "x": 1.7318,
              "y": -1.7781,
              "z": -1.8989
            }
          },
          {
            "elSymbol": "H",
            "p3d": {
              "x": 4.0936,
              "y": 2.9609,
              "z": -1.5808
            }
          },
          {
            "elSymbol": "H",
            "p3d": {
              "x": 5.3077,
              "y": -1.3005,
              "z": -3.3639
            }
          },
          {
            "elSymbol": "H",
            "p3d": {
              "x": 5.2705,
              "y": 1.0583,
              "z": -2.6578
            }
          },
          {
            "elSymbol": "C",
            "p3d": {
              "x": 2.3998,
              "y": -2.8526,
              "z": -2.5007
            }
          },
          {
            "elSymbol": "H",
            "p3d": {
              "x": 0.724,
              "y": -1.9306,
              "z": -1.4908
            }
          },
          {
            "elSymbol": "H",
            "p3d": {
              "x": 1.9155,
              "y": -3.8304,
              "z": -2.576
            }
          },
          {
            "elSymbol": "C",
            "p3d": {
              "x": 3.684,
              "y": -2.6697,
              "z": -3.0355
            }
          },
          {
            "elSymbol": "H",
            "p3d": {
              "x": 4.2028,
              "y": -3.5195,
              "z": -3.4955
            }
          },
          {
            "elSymbol": "C",
            "p3d": {
              "x": 4.3092,
              "y": -1.4197,
              "z": -2.9387
            }
          }
        ],
        "bonds": [
          {
            "atomIds": [
              0,
              1
            ],
            "bo": "SINGLE"
          },
          {
            "atomIds": [
              1,
              2
            ],
            "bo": "SINGLE"
          },
          {
            "atomIds": [
              1,
              5
            ],
            "bo": "DOUBLE"
          },
          {
            "atomIds": [
              2,
              4
            ],
            "bo": "DOUBLE"
          },
          {
            "atomIds": [
              4,
              6
            ],
            "bo": "SINGLE"
          },
          {
            "atomIds": [
              3,
              5
            ],
            "bo": "SINGLE"
          },
          {
            "atomIds": [
              3,
              6
            ],
            "bo": "DOUBLE"
          },
          {
            "atomIds": [
              7,
              4
            ],
            "bo": "SINGLE"
          },
          {
            "atomIds": [
              6,
              16
            ],
            "bo": "SINGLE"
          },
          {
            "atomIds": [
              7,
              11
            ],
            "bo": "DOUBLE"
          },
          {
            "atomIds": [
              11,
              14
            ],
            "bo": "SINGLE"
          },
          {
            "atomIds": [
              14,
              16
            ],
            "bo": "DOUBLE"
          },
          {
            "atomIds": [
              3,
              10
            ],
            "bo": "SINGLE"
          },
          {
            "atomIds": [
              5,
              8
            ],
            "bo": "SINGLE"
          },
          {
            "atomIds": [
              7,
              12
            ],
            "bo": "SINGLE"
          },
          {
            "atomIds": [
              9,
              16
            ],
            "bo": "SINGLE"
          },
          {
            "atomIds": [
              14,
              15
            ],
            "bo": "SINGLE"
          },
          {
            "atomIds": [
              11,
              13
            ],
            "bo": "SINGLE"
          }
        ]
      },
      "vertexId": 528908,
      "buildingBlockId": 38,
      "buildingBlockType": "FRAGMENT",
      "isRCV": false,
      "properties": {
        "ATTACHMENT_POINTS": "3#SubArM:1:SINGLE:0.2839%0.3907%-0.6271 "
      },
      "uniquefyingPropertyKeys": [],
      "allowedMutationTypes": [
        "DELETE",
        "EXTEND",
        "CHANGEBRANCH",
        "CHANGELINK",
        "ADDLINK",
        "DELETELINK",
        "DELETECHAIN"
      ],
      "vertexType": "MolecularFragment"
    }
  ],
  "gEdges": [
    {
      "srcAPID": 603388,
      "trgAPID": 603391,
      "bondType": "SINGLE"
    },
    {
      "srcAPID": 603390,
      "trgAPID": 603393,
      "bondType": "SINGLE"
    },
    {
      "srcAPID": 603389,
      "trgAPID": 603394,
      "bondType": "SINGLE"
    },
    {
      "srcAPID": 603392,
      "trgAPID": 603395,
      "bondType": "SINGLE"
    },
    {
      "srcAPID": 603396,
      "trgAPID": 603427,
      "bondType": "SINGLE"
    }
  ],
  "gRings": [],
  "symVertices": []
}

> <SMILES>
[Pt](C#O)(SC([H])([H])[H])([P]1(OC2=C([H])C([H])=C([H])C(=C2C3=C([H])C([H])=C([H])C(=C3O1)[H])[H])OC=4C([H])=C(C(=C5C4C(=C(C(=C5[H])[H])[H])[H])[H])[H])C#N

$$$$
