M00001725
  CDK     04222209163D

 52 52  0  0  0  0  0  0  0  0999 V2000
   -2.2234    0.1282    0.2293 Pt  0  0  0  0  0  0  0  0  0  0  0  0
   -4.1824    0.0290    0.2994 C   0  0  0  0  0  0  0  0  0  0  0  0
   -5.3213   -0.0705    0.3435 O   0  0  0  0  0  0  0  0  0  0  0  0
   -1.5972    1.9072   -0.6209 O   0  0  0  0  0  0  0  0  0  0  0  0
   -2.6795    2.7593   -0.9203 C   0  0  0  0  0  0  0  0  0  0  0  0
   -2.2455    3.6784   -1.3365 H   0  0  0  0  0  0  0  0  0  0  0  0
   -3.2315    2.9874    0.0002 H   0  0  0  0  0  0  0  0  0  0  0  0
   -3.3298    2.2787   -1.6619 H   0  0  0  0  0  0  0  0  0  0  0  0
    2.0700   -0.5781   -1.3185 C   0  0  0  0  0  0  0  0  0  0  0  0
    3.0086   -0.0193   -1.0970 H   0  0  0  0  0  0  0  0  0  0  0  0
    2.1804   -0.9931   -2.3452 H   0  0  0  0  0  0  0  0  0  0  0  0
    1.8622   -1.7240   -0.2957 C   0  0  0  0  0  0  0  0  0  0  0  0
    1.5104   -2.6469   -0.8122 H   0  0  0  0  0  0  0  0  0  0  0  0
    2.8241   -1.9787    0.2017 H   0  0  0  0  0  0  0  0  0  0  0  0
    0.9041    0.3420   -1.2700 N   0  0  0  0  0  0  0  0  0  0  0  0
    0.8610   -1.2970    0.7134 N   0  0  0  0  0  0  0  0  0  0  0  0
    0.0459    0.1663    0.2211 P   0  0  0  0  0  0  0  0  0  0  0  0
    0.3330    0.4722   -3.6847 C   0  0  0  0  0  0  0  0  0  0  0  0
    0.5978    1.2607   -2.3942 C   0  0  0  0  0  0  0  0  0  0  0  0
    1.7507    2.2591   -2.5834 C   0  0  0  0  0  0  0  0  0  0  0  0
    1.4832    3.0266   -3.3167 H   0  0  0  0  0  0  0  0  0  0  0  0
    2.6691    1.7774   -2.9295 H   0  0  0  0  0  0  0  0  0  0  0  0
    1.9802    2.7699   -1.6353 H   0  0  0  0  0  0  0  0  0  0  0  0
   -0.0029    1.1420   -4.4836 H   0  0  0  0  0  0  0  0  0  0  0  0
    1.2217   -0.0519   -4.0480 H   0  0  0  0  0  0  0  0  0  0  0  0
   -0.4530   -0.2775   -3.5320 H   0  0  0  0  0  0  0  0  0  0  0  0
   -0.3422    1.8354   -2.1209 H   0  0  0  0  0  0  0  0  0  0  0  0
   -0.6029    1.5463    2.4957 C   0  0  0  0  0  0  0  0  0  0  0  0
    0.5608    1.4815    1.5116 C   0  0  0  0  0  0  0  0  0  0  0  0
    0.8226    2.8123    0.8259 C   0  0  0  0  0  0  0  0  0  0  0  0
   -0.0734    3.1816    0.2900 H   0  0  0  0  0  0  0  0  0  0  0  0
    1.6414    2.7663    0.0909 H   0  0  0  0  0  0  0  0  0  0  0  0
    1.0883    3.5817    1.5613 H   0  0  0  0  0  0  0  0  0  0  0  0
   -0.3839    2.2635    3.3001 H   0  0  0  0  0  0  0  0  0  0  0  0
   -1.5395    1.9015    2.0229 H   0  0  0  0  0  0  0  0  0  0  0  0
   -0.8174    0.5863    2.9883 H   0  0  0  0  0  0  0  0  0  0  0  0
    1.4880    1.1328    2.0269 H   0  0  0  0  0  0  0  0  0  0  0  0
    1.7728   -1.7545    2.9755 C   0  0  0  0  0  0  0  0  0  0  0  0
    0.6497   -2.0581    1.9678 C   0  0  0  0  0  0  0  0  0  0  0  0
    0.5702   -3.5646    1.6860 C   0  0  0  0  0  0  0  0  0  0  0  0
   -0.1791   -3.7755    0.9024 H   0  0  0  0  0  0  0  0  0  0  0  0
    0.2543   -4.1083    2.5838 H   0  0  0  0  0  0  0  0  0  0  0  0
    1.5249   -3.9870    1.3631 H   0  0  0  0  0  0  0  0  0  0  0  0
    2.7589   -2.0238    2.5852 H   0  0  0  0  0  0  0  0  0  0  0  0
    1.8054   -0.6904    3.2333 H   0  0  0  0  0  0  0  0  0  0  0  0
    1.6236   -2.3140    3.9051 H   0  0  0  0  0  0  0  0  0  0  0  0
   -0.3337   -1.7282    2.4117 H   0  0  0  0  0  0  0  0  0  0  0  0
   -2.8545   -1.8688    1.2089 S   0  0  0  0  0  0  0  0  0  0  0  0
   -2.4357   -2.9667   -0.1726 C   0  0  0  0  0  0  0  0  0  0  0  0
   -1.4523   -3.4316    0.0095 H   0  0  0  0  0  0  0  0  0  0  0  0
   -2.3910   -2.4110   -1.1164 H   0  0  0  0  0  0  0  0  0  0  0  0
   -3.1914   -3.7540   -0.2591 H   0  0  0  0  0  0  0  0  0  0  0  0
  2  3  3  0  0  0  0
  1  2  1  0  0  0  0
  5  6  1  0  0  0  0
  5  7  1  0  0  0  0
  5  8  1  0  0  0  0
  4  5  1  0  0  0  0
  1  4  1  0  0  0  0
  9 10  1  0  0  0  0
  9 15  1  0  0  0  0
 11  9  1  0  0  0  0
 12  9  1  0  0  0  0
 13 12  1  0  0  0  0
 14 12  1  0  0  0  0
 15 17  1  0  0  0  0
 16 12  1  0  0  0  0
 16 17  1  0  0  0  0
  1 17  1  0  0  0  0
 18 19  1  0  0  0  0
 19 20  1  0  0  0  0
 20 21  1  0  0  0  0
 20 22  1  0  0  0  0
 20 23  1  0  0  0  0
 18 24  1  0  0  0  0
 18 25  1  0  0  0  0
 18 26  1  0  0  0  0
 19 27  1  0  0  0  0
 15 19  1  0  0  0  0
 28 29  1  0  0  0  0
 29 30  1  0  0  0  0
 30 31  1  0  0  0  0
 30 32  1  0  0  0  0
 30 33  1  0  0  0  0
 28 34  1  0  0  0  0
 28 35  1  0  0  0  0
 28 36  1  0  0  0  0
 29 37  1  0  0  0  0
 17 29  1  0  0  0  0
 38 39  1  0  0  0  0
 39 40  1  0  0  0  0
 40 41  1  0  0  0  0
 40 42  1  0  0  0  0
 40 43  1  0  0  0  0
 38 44  1  0  0  0  0
 38 45  1  0  0  0  0
 38 46  1  0  0  0  0
 39 47  1  0  0  0  0
 16 39  1  0  0  0  0
 49 50  1  0  0  0  0
 49 51  1  0  0  0  0
 49 52  1  0  0  0  0
 48 49  1  0  0  0  0
  1 48  1  0  0  0  0
M  END
> <PM6_ENERGY>
-491.288

> <UID>
WVCAHVORYJFNNH-XQIVFZIRNA-M

> <FITNESS>
1.14409

> <GCODE>
2336

> <GraphENC>
2336 72_1_0,80_65_1,99_2_1,85_64_1,43431_33_1,43440_33_1,43733_33_1, 72_0_80_0_SINGLE_Xlig:0_Xlig:1,72_2_99_3_SINGLE_scaff:0_MBisAminoPhosphine:1,72_1_85_0_SINGLE_Xlig:0_Xlig:1,99_0_43431_0_SINGLE_LCycloBisAminoPhosphineSubN:0_SubRM:1,99_2_43440_0_SINGLE_LBisAminoPhosphineSubR:0_SubRM:1,99_1_43733_0_SINGLE_LCycloBisAminoPhosphineSubN:0_SubRM:1, SymmetricSet [symIds=[43431, 43733]] 

> <GraphJson>
{
  "graphId": 2336,
  "gVertices": [
    {
      "lstAPs": [
        {
          "id": 58408,
          "atomPositionNumber": 0,
          "atomPositionNumberInMol": 0,
          "apClass": {
            "rule": "Xlig",
            "subClass": 0,
            "bndTyp": "SINGLE"
          },
          "dirVec": {
            "x": -2.3339,
            "y": -0.0087,
            "z": 0.8172
          }
        },
        {
          "id": 58409,
          "atomPositionNumber": 0,
          "atomPositionNumberInMol": 0,
          "apClass": {
            "rule": "Xlig",
            "subClass": 0,
            "bndTyp": "SINGLE"
          },
          "dirVec": {
            "x": 2.336,
            "y": -5.0E-4,
            "z": 0.829
          }
        },
        {
          "id": 58410,
          "atomPositionNumber": 0,
          "atomPositionNumberInMol": 0,
          "apClass": {
            "rule": "scaff",
            "subClass": 0,
            "bndTyp": "SINGLE"
          },
          "dirVec": {
            "x": -0.0095,
            "y": 0.0046,
            "z": -1.7113
          }
        }
      ],
      "lstSymAPs": [
        {
          "symIds": [
            0,
            1
          ]
        }
      ],
      "mol": {
        "atoms": [
          {
            "elSymbol": "Pt",
            "p3d": {
              "x": -0.0098,
              "y": 0.0049,
              "z": 0.6289
            }
          },
          {
            "elSymbol": "C",
            "p3d": {
              "x": -6.0E-4,
              "y": 0.0016,
              "z": 2.5609
            }
          },
          {
            "elSymbol": "O",
            "p3d": {
              "x": 0.0025,
              "y": -0.0041,
              "z": 3.6974
            }
          },
          {
            "elSymbol": "Du",
            "p3d": {
              "x": -0.007,
              "y": 1.0013,
              "z": 0.6372
            }
          },
          {
            "elSymbol": "Du",
            "p3d": {
              "x": -0.0014,
              "y": 0.9902,
              "z": 2.5698
            }
          }
        ],
        "bonds": [
          {
            "atomIds": [
              1,
              2
            ],
            "bo": "TRIPLE"
          },
          {
            "atomIds": [
              0,
              1
            ],
            "bo": "SINGLE"
          },
          {
            "atomIds": [
              3,
              0
            ],
            "bo": "SINGLE"
          },
          {
            "atomIds": [
              4,
              1
            ],
            "bo": "SINGLE"
          }
        ]
      },
      "vertexId": 72,
      "buildingBlockId": 0,
      "buildingBlockType": "SCAFFOLD",
      "isRCV": false,
      "properties": {
        "ATTACHMENT_POINTS": "1#Xlig:0:SINGLE:-2.3339%-0.0087%0.8172,Xlig:0:SINGLE:2.3360%-0.0005%0.8290,scaff:0:SINGLE:-0.0095%0.0046%-1.7113 "
      },
      "uniquefyingPropertyKeys": [],
      "allowedMutationTypes": [
        "DELETE",
        "EXTEND",
        "CHANGEBRANCH",
        "CHANGELINK",
        "ADDLINK",
        "DELETELINK",
        "DELETECHAIN"
      ],
      "vertexType": "MolecularFragment"
    },
    {
      "lstAPs": [
        {
          "id": 58411,
          "atomPositionNumber": 0,
          "atomPositionNumberInMol": 5,
          "apClass": {
            "rule": "Xlig",
            "subClass": 1,
            "bndTyp": "SINGLE"
          },
          "dirVec": {
            "x": -0.1753,
            "y": 0.0948,
            "z": -0.4464
          }
        }
      ],
      "lstSymAPs": [],
      "mol": {
        "atoms": [
          {
            "elSymbol": "O",
            "p3d": {
              "x": -0.3534,
              "y": 2.1044,
              "z": -0.7339
            }
          },
          {
            "elSymbol": "C",
            "p3d": {
              "x": -0.5345,
              "y": 2.7646,
              "z": 0.4801
            }
          },
          {
            "elSymbol": "H",
            "p3d": {
              "x": -0.3728,
              "y": 3.8337,
              "z": 0.2724
            }
          },
          {
            "elSymbol": "H",
            "p3d": {
              "x": 0.1816,
              "y": 2.4161,
              "z": 1.2384
            }
          },
          {
            "elSymbol": "H",
            "p3d": {
              "x": -1.553,
              "y": 2.6149,
              "z": 0.8489
            }
          }
        ],
        "bonds": [
          {
            "atomIds": [
              1,
              2
            ],
            "bo": "SINGLE"
          },
          {
            "atomIds": [
              1,
              3
            ],
            "bo": "SINGLE"
          },
          {
            "atomIds": [
              1,
              4
            ],
            "bo": "SINGLE"
          },
          {
            "atomIds": [
              0,
              1
            ],
            "bo": "SINGLE"
          }
        ]
      },
      "vertexId": 80,
      "buildingBlockId": 64,
      "buildingBlockType": "FRAGMENT",
      "isRCV": false,
      "properties": {
        "ATTACHMENT_POINTS": "1#Xlig:1:SINGLE:-0.1753%0.0948%-0.4464 "
      },
      "uniquefyingPropertyKeys": [],
      "allowedMutationTypes": [
        "DELETE",
        "EXTEND",
        "CHANGEBRANCH",
        "CHANGELINK",
        "ADDLINK",
        "DELETELINK",
        "DELETECHAIN"
      ],
      "vertexType": "MolecularFragment"
    },
    {
      "lstAPs": [
        {
          "id": 58412,
          "atomPositionNumber": 6,
          "atomPositionNumberInMol": 16,
          "apClass": {
            "rule": "LCycloBisAminoPhosphineSubN",
            "subClass": 0,
            "bndTyp": "SINGLE"
          },
          "dirVec": {
            "x": 5.444,
            "y": 15.1509,
            "z": 1.4318
          }
        },
        {
          "id": 58413,
          "atomPositionNumber": 7,
          "atomPositionNumberInMol": 17,
          "apClass": {
            "rule": "LCycloBisAminoPhosphineSubN",
            "subClass": 0,
            "bndTyp": "SINGLE"
          },
          "dirVec": {
            "x": 6.0759,
            "y": 19.8798,
            "z": 3.3975
          }
        },
        {
          "id": 58414,
          "atomPositionNumber": 8,
          "atomPositionNumberInMol": 18,
          "apClass": {
            "rule": "LBisAminoPhosphineSubR",
            "subClass": 0,
            "bndTyp": "SINGLE"
          },
          "dirVec": {
            "x": 8.322,
            "y": 17.0114,
            "z": 3.3102
          }
        },
        {
          "id": 58415,
          "atomPositionNumber": 8,
          "atomPositionNumberInMol": 18,
          "apClass": {
            "rule": "MBisAminoPhosphine",
            "subClass": 1,
            "bndTyp": "SINGLE"
          },
          "dirVec": {
            "x": 7.5392,
            "y": 18.0219,
            "z": 0.2376
          }
        }
      ],
      "lstSymAPs": [
        {
          "symIds": [
            0,
            1
          ]
        }
      ],
      "mol": {
        "atoms": [
          {
            "elSymbol": "C",
            "p3d": {
              "x": 4.9306,
              "y": 16.3362,
              "z": 3.6097
            }
          },
          {
            "elSymbol": "H",
            "p3d": {
              "x": 5.41,
              "y": 15.9229,
              "z": 4.4964
            }
          },
          {
            "elSymbol": "H",
            "p3d": {
              "x": 3.9543,
              "y": 15.8675,
              "z": 3.4723
            }
          },
          {
            "elSymbol": "C",
            "p3d": {
              "x": 4.7677,
              "y": 17.836,
              "z": 3.7637
            }
          },
          {
            "elSymbol": "H",
            "p3d": {
              "x": 3.8551,
              "y": 18.1933,
              "z": 3.2482
            }
          },
          {
            "elSymbol": "H",
            "p3d": {
              "x": 4.6641,
              "y": 18.1095,
              "z": 4.8111
            }
          },
          {
            "elSymbol": "N",
            "p3d": {
              "x": 5.7767,
              "y": 16.1652,
              "z": 2.3965
            }
          },
          {
            "elSymbol": "N",
            "p3d": {
              "x": 5.9524,
              "y": 18.471,
              "z": 3.179
            }
          },
          {
            "elSymbol": "P",
            "p3d": {
              "x": 6.8638,
              "y": 17.4143,
              "z": 2.2309
            }
          }
        ],
        "bonds": [
          {
            "atomIds": [
              0,
              1
            ],
            "bo": "SINGLE"
          },
          {
            "atomIds": [
              0,
              6
            ],
            "bo": "SINGLE"
          },
          {
            "atomIds": [
              2,
              0
            ],
            "bo": "SINGLE"
          },
          {
            "atomIds": [
              3,
              0
            ],
            "bo": "SINGLE"
          },
          {
            "atomIds": [
              4,
              3
            ],
            "bo": "SINGLE"
          },
          {
            "atomIds": [
              5,
              3
            ],
            "bo": "SINGLE"
          },
          {
            "atomIds": [
              6,
              8
            ],
            "bo": "SINGLE"
          },
          {
            "atomIds": [
              7,
              3
            ],
            "bo": "SINGLE"
          },
          {
            "atomIds": [
              7,
              8
            ],
            "bo": "SINGLE"
          }
        ]
      },
      "vertexId": 99,
      "buildingBlockId": 1,
      "buildingBlockType": "FRAGMENT",
      "isRCV": false,
      "properties": {
        "ATTACHMENT_POINTS": "7#LCycloBisAminoPhosphineSubN:0:SINGLE:5.4440%15.1509%1.4318 8#LCycloBisAminoPhosphineSubN:0:SINGLE:6.0759%19.8798%3.3975 9#LBisAminoPhosphineSubR:0:SINGLE:8.3220%17.0114%3.3102,MBisAminoPhosphine:1:SINGLE:7.5392%18.0219%0.2376 "
      },
      "uniquefyingPropertyKeys": [],
      "allowedMutationTypes": [
        "DELETE",
        "EXTEND",
        "CHANGEBRANCH",
        "CHANGELINK",
        "ADDLINK",
        "DELETELINK",
        "DELETECHAIN"
      ],
      "vertexType": "MolecularFragment"
    },
    {
      "lstAPs": [
        {
          "id": 58416,
          "atomPositionNumber": 0,
          "atomPositionNumberInMol": 49,
          "apClass": {
            "rule": "Xlig",
            "subClass": 1,
            "bndTyp": "SINGLE"
          },
          "dirVec": {
            "x": -0.102,
            "y": 0.0185,
            "z": -1.0265
          }
        }
      ],
      "lstSymAPs": [],
      "mol": {
        "atoms": [
          {
            "elSymbol": "S",
            "p3d": {
              "x": -0.3267,
              "y": 2.3403,
              "z": -1.0022
            }
          },
          {
            "elSymbol": "C",
            "p3d": {
              "x": -0.626,
              "y": 2.4866,
              "z": 0.7805
            }
          },
          {
            "elSymbol": "H",
            "p3d": {
              "x": 0.1766,
              "y": 3.089,
              "z": 1.2414
            }
          },
          {
            "elSymbol": "H",
            "p3d": {
              "x": -0.651,
              "y": 1.5065,
              "z": 1.2643
            }
          },
          {
            "elSymbol": "H",
            "p3d": {
              "x": -1.5658,
              "y": 2.981,
              "z": 0.9515
            }
          }
        ],
        "bonds": [
          {
            "atomIds": [
              1,
              2
            ],
            "bo": "SINGLE"
          },
          {
            "atomIds": [
              1,
              3
            ],
            "bo": "SINGLE"
          },
          {
            "atomIds": [
              1,
              4
            ],
            "bo": "SINGLE"
          },
          {
            "atomIds": [
              0,
              1
            ],
            "bo": "SINGLE"
          }
        ]
      },
      "vertexId": 85,
      "buildingBlockId": 63,
      "buildingBlockType": "FRAGMENT",
      "isRCV": false,
      "properties": {
        "ATTACHMENT_POINTS": "1#Xlig:1:SINGLE:-0.1020%0.0185%-1.0265 "
      },
      "uniquefyingPropertyKeys": [],
      "allowedMutationTypes": [
        "DELETE",
        "EXTEND",
        "CHANGEBRANCH",
        "CHANGELINK",
        "ADDLINK",
        "DELETELINK",
        "DELETECHAIN"
      ],
      "vertexType": "MolecularFragment"
    },
    {
      "lstAPs": [
        {
          "id": 58453,
          "atomPositionNumber": 1,
          "atomPositionNumberInMol": 20,
          "apClass": {
            "rule": "SubRM",
            "subClass": 1,
            "bndTyp": "SINGLE"
          },
          "dirVec": {
            "x": 0.2868,
            "y": 0.385,
            "z": -0.643
          }
        }
      ],
      "lstSymAPs": [],
      "mol": {
        "atoms": [
          {
            "elSymbol": "C",
            "p3d": {
              "x": 1.141,
              "y": 1.0262,
              "z": 1.6347
            }
          },
          {
            "elSymbol": "C",
            "p3d": {
              "x": 0.3967,
              "y": -0.0479,
              "z": 0.8227
            }
          },
          {
            "elSymbol": "C",
            "p3d": {
              "x": 1.1459,
              "y": -1.371,
              "z": 0.9201
            }
          },
          {
            "elSymbol": "H",
            "p3d": {
              "x": 2.1461,
              "y": -1.2583,
              "z": 0.4976
            }
          },
          {
            "elSymbol": "H",
            "p3d": {
              "x": 0.6013,
              "y": -2.1408,
              "z": 0.3461
            }
          },
          {
            "elSymbol": "H",
            "p3d": {
              "x": 1.2113,
              "y": -1.6946,
              "z": 1.9559
            }
          },
          {
            "elSymbol": "H",
            "p3d": {
              "x": 2.1541,
              "y": 1.1435,
              "z": 1.2119
            }
          },
          {
            "elSymbol": "H",
            "p3d": {
              "x": 0.6143,
              "y": 1.976,
              "z": 1.5626
            }
          },
          {
            "elSymbol": "H",
            "p3d": {
              "x": 1.2058,
              "y": 0.7088,
              "z": 2.6868
            }
          },
          {
            "elSymbol": "H",
            "p3d": {
              "x": -0.6215,
              "y": -0.1789,
              "z": 1.2377
            }
          }
        ],
        "bonds": [
          {
            "atomIds": [
              0,
              1
            ],
            "bo": "SINGLE"
          },
          {
            "atomIds": [
              1,
              2
            ],
            "bo": "SINGLE"
          },
          {
            "atomIds": [
              2,
              3
            ],
            "bo": "SINGLE"
          },
          {
            "atomIds": [
              2,
              4
            ],
            "bo": "SINGLE"
          },
          {
            "atomIds": [
              2,
              5
            ],
            "bo": "SINGLE"
          },
          {
            "atomIds": [
              0,
              6
            ],
            "bo": "SINGLE"
          },
          {
            "atomIds": [
              0,
              7
            ],
            "bo": "SINGLE"
          },
          {
            "atomIds": [
              0,
              8
            ],
            "bo": "SINGLE"
          },
          {
            "atomIds": [
              1,
              9
            ],
            "bo": "SINGLE"
          }
        ]
      },
      "vertexId": 43431,
      "buildingBlockId": 32,
      "buildingBlockType": "FRAGMENT",
      "isRCV": false,
      "properties": {
        "ATTACHMENT_POINTS": "2#SubRM:1:SINGLE:0.2868%0.3850%-0.6430 "
      },
      "uniquefyingPropertyKeys": [],
      "allowedMutationTypes": [
        "DELETE",
        "EXTEND",
        "CHANGEBRANCH",
        "CHANGELINK",
        "ADDLINK",
        "DELETELINK",
        "DELETECHAIN"
      ],
      "vertexType": "MolecularFragment"
    },
    {
      "lstAPs": [
        {
          "id": 58454,
          "atomPositionNumber": 1,
          "atomPositionNumberInMol": 30,
          "apClass": {
            "rule": "SubRM",
            "subClass": 1,
            "bndTyp": "SINGLE"
          },
          "dirVec": {
            "x": 0.2868,
            "y": 0.385,
            "z": -0.643
          }
        }
      ],
      "lstSymAPs": [],
      "mol": {
        "atoms": [
          {
            "elSymbol": "C",
            "p3d": {
              "x": 1.141,
              "y": 1.0262,
              "z": 1.6347
            }
          },
          {
            "elSymbol": "C",
            "p3d": {
              "x": 0.3967,
              "y": -0.0479,
              "z": 0.8227
            }
          },
          {
            "elSymbol": "C",
            "p3d": {
              "x": 1.1459,
              "y": -1.371,
              "z": 0.9201
            }
          },
          {
            "elSymbol": "H",
            "p3d": {
              "x": 2.1461,
              "y": -1.2583,
              "z": 0.4976
            }
          },
          {
            "elSymbol": "H",
            "p3d": {
              "x": 0.6013,
              "y": -2.1408,
              "z": 0.3461
            }
          },
          {
            "elSymbol": "H",
            "p3d": {
              "x": 1.2113,
              "y": -1.6946,
              "z": 1.9559
            }
          },
          {
            "elSymbol": "H",
            "p3d": {
              "x": 2.1541,
              "y": 1.1435,
              "z": 1.2119
            }
          },
          {
            "elSymbol": "H",
            "p3d": {
              "x": 0.6143,
              "y": 1.976,
              "z": 1.5626
            }
          },
          {
            "elSymbol": "H",
            "p3d": {
              "x": 1.2058,
              "y": 0.7088,
              "z": 2.6868
            }
          },
          {
            "elSymbol": "H",
            "p3d": {
              "x": -0.6215,
              "y": -0.1789,
              "z": 1.2377
            }
          }
        ],
        "bonds": [
          {
            "atomIds": [
              0,
              1
            ],
            "bo": "SINGLE"
          },
          {
            "atomIds": [
              1,
              2
            ],
            "bo": "SINGLE"
          },
          {
            "atomIds": [
              2,
              3
            ],
            "bo": "SINGLE"
          },
          {
            "atomIds": [
              2,
              4
            ],
            "bo": "SINGLE"
          },
          {
            "atomIds": [
              2,
              5
            ],
            "bo": "SINGLE"
          },
          {
            "atomIds": [
              0,
              6
            ],
            "bo": "SINGLE"
          },
          {
            "atomIds": [
              0,
              7
            ],
            "bo": "SINGLE"
          },
          {
            "atomIds": [
              0,
              8
            ],
            "bo": "SINGLE"
          },
          {
            "atomIds": [
              1,
              9
            ],
            "bo": "SINGLE"
          }
        ]
      },
      "vertexId": 43440,
      "buildingBlockId": 32,
      "buildingBlockType": "FRAGMENT",
      "isRCV": false,
      "properties": {
        "ATTACHMENT_POINTS": "2#SubRM:1:SINGLE:0.2868%0.3850%-0.6430 "
      },
      "uniquefyingPropertyKeys": [],
      "allowedMutationTypes": [
        "DELETE",
        "EXTEND",
        "CHANGEBRANCH",
        "CHANGELINK",
        "ADDLINK",
        "DELETELINK",
        "DELETECHAIN"
      ],
      "vertexType": "MolecularFragment"
    },
    {
      "lstAPs": [
        {
          "id": 58455,
          "atomPositionNumber": 1,
          "atomPositionNumberInMol": 40,
          "apClass": {
            "rule": "SubRM",
            "subClass": 1,
            "bndTyp": "SINGLE"
          },
          "dirVec": {
            "x": 0.2868,
            "y": 0.385,
            "z": -0.643
          }
        }
      ],
      "lstSymAPs": [],
      "mol": {
        "atoms": [
          {
            "elSymbol": "C",
            "p3d": {
              "x": 1.141,
              "y": 1.0262,
              "z": 1.6347
            }
          },
          {
            "elSymbol": "C",
            "p3d": {
              "x": 0.3967,
              "y": -0.0479,
              "z": 0.8227
            }
          },
          {
            "elSymbol": "C",
            "p3d": {
              "x": 1.1459,
              "y": -1.371,
              "z": 0.9201
            }
          },
          {
            "elSymbol": "H",
            "p3d": {
              "x": 2.1461,
              "y": -1.2583,
              "z": 0.4976
            }
          },
          {
            "elSymbol": "H",
            "p3d": {
              "x": 0.6013,
              "y": -2.1408,
              "z": 0.3461
            }
          },
          {
            "elSymbol": "H",
            "p3d": {
              "x": 1.2113,
              "y": -1.6946,
              "z": 1.9559
            }
          },
          {
            "elSymbol": "H",
            "p3d": {
              "x": 2.1541,
              "y": 1.1435,
              "z": 1.2119
            }
          },
          {
            "elSymbol": "H",
            "p3d": {
              "x": 0.6143,
              "y": 1.976,
              "z": 1.5626
            }
          },
          {
            "elSymbol": "H",
            "p3d": {
              "x": 1.2058,
              "y": 0.7088,
              "z": 2.6868
            }
          },
          {
            "elSymbol": "H",
            "p3d": {
              "x": -0.6215,
              "y": -0.1789,
              "z": 1.2377
            }
          }
        ],
        "bonds": [
          {
            "atomIds": [
              0,
              1
            ],
            "bo": "SINGLE"
          },
          {
            "atomIds": [
              1,
              2
            ],
            "bo": "SINGLE"
          },
          {
            "atomIds": [
              2,
              3
            ],
            "bo": "SINGLE"
          },
          {
            "atomIds": [
              2,
              4
            ],
            "bo": "SINGLE"
          },
          {
            "atomIds": [
              2,
              5
            ],
            "bo": "SINGLE"
          },
          {
            "atomIds": [
              0,
              6
            ],
            "bo": "SINGLE"
          },
          {
            "atomIds": [
              0,
              7
            ],
            "bo": "SINGLE"
          },
          {
            "atomIds": [
              0,
              8
            ],
            "bo": "SINGLE"
          },
          {
            "atomIds": [
              1,
              9
            ],
            "bo": "SINGLE"
          }
        ]
      },
      "vertexId": 43733,
      "buildingBlockId": 32,
      "buildingBlockType": "FRAGMENT",
      "isRCV": false,
      "properties": {
        "ATTACHMENT_POINTS": "2#SubRM:1:SINGLE:0.2868%0.3850%-0.6430 "
      },
      "uniquefyingPropertyKeys": [],
      "allowedMutationTypes": [
        "DELETE",
        "EXTEND",
        "CHANGEBRANCH",
        "CHANGELINK",
        "ADDLINK",
        "DELETELINK",
        "DELETECHAIN"
      ],
      "vertexType": "MolecularFragment"
    }
  ],
  "gEdges": [
    {
      "srcAPID": 58408,
      "trgAPID": 58411,
      "bondType": "SINGLE"
    },
    {
      "srcAPID": 58410,
      "trgAPID": 58415,
      "bondType": "SINGLE"
    },
    {
      "srcAPID": 58409,
      "trgAPID": 58416,
      "bondType": "SINGLE"
    },
    {
      "srcAPID": 58412,
      "trgAPID": 58453,
      "bondType": "SINGLE"
    },
    {
      "srcAPID": 58414,
      "trgAPID": 58454,
      "bondType": "SINGLE"
    },
    {
      "srcAPID": 58413,
      "trgAPID": 58455,
      "bondType": "SINGLE"
    }
  ],
  "gRings": [],
  "symVertices": [
    {
      "symIds": [
        43431,
        43733
      ]
    }
  ]
}

> <SMILES>
[Pt](C#O)(OC([H])([H])[H])([P]1(N(C([H])([H])C([H])([H])N1C(C([H])([H])[H])(C([H])([H])[H])[H])C(C([H])([H])[H])(C([H])([H])[H])[H])C(C([H])([H])[H])(C([H])([H])[H])[H])SC([H])([H])[H]

$$$$
