M00000424
  CDK     04222208473D

 56 58  0  0  0  0  0  0  0  0999 V2000
    3.3815    0.5757    0.1709 Pt  0  0  0  0  0  0  0  0  0  0  0  0
    5.2838    0.7717    0.2468 C   0  0  0  0  0  0  0  0  0  0  0  0
    6.4220    0.8868    0.3011 O   0  0  0  0  0  0  0  0  0  0  0  0
    3.6343   -1.7018    0.3307 S   0  0  0  0  0  0  0  0  0  0  0  0
    4.2561   -2.0296   -1.3396 C   0  0  0  0  0  0  0  0  0  0  0  0
    5.3485   -2.1079   -1.3356 H   0  0  0  0  0  0  0  0  0  0  0  0
    3.9554   -1.2302   -2.0352 H   0  0  0  0  0  0  0  0  0  0  0  0
    3.8469   -2.9802   -1.6994 H   0  0  0  0  0  0  0  0  0  0  0  0
    1.3709    0.3614    0.1219 C   0  0  1  0  0  0  0  0  0  0  0  0
    0.5442    0.3235    1.2343 N   0  0  0  0  0  0  0  0  0  0  0  0
   -0.8082    0.2618    0.8059 C   0  0  0  0  0  0  0  0  0  0  0  0
   -0.8003    0.2469   -0.5833 C   0  0  0  0  0  0  0  0  0  0  0  0
    0.5587    0.2938   -0.9983 N   0  0  0  0  0  0  0  0  0  0  0  0
    0.8866   -1.2006   -2.9283 C   0  0  0  0  0  0  0  0  0  0  0  0
    0.9698    0.2492   -2.4446 C   0  0  0  0  0  0  0  0  0  0  0  0
    2.3585    0.8406   -2.6479 C   0  0  0  0  0  0  0  0  0  0  0  0
    2.4605    1.8421   -2.1927 H   0  0  0  0  0  0  0  0  0  0  0  0
    2.5721    0.9648   -3.7180 H   0  0  0  0  0  0  0  0  0  0  0  0
    3.1635    0.1989   -2.2334 H   0  0  0  0  0  0  0  0  0  0  0  0
   -0.1395   -1.5876   -2.8864 H   0  0  0  0  0  0  0  0  0  0  0  0
    1.2280   -1.2877   -3.9666 H   0  0  0  0  0  0  0  0  0  0  0  0
    1.5105   -1.8732   -2.3218 H   0  0  0  0  0  0  0  0  0  0  0  0
    0.2170    0.8764   -3.0020 H   0  0  0  0  0  0  0  0  0  0  0  0
    2.2636    1.0659    2.8884 C   0  0  0  0  0  0  0  0  0  0  0  0
    0.9488    0.3232    2.6842 C   0  0  0  0  0  0  0  0  0  0  0  0
    1.0234   -1.1248    3.1700 C   0  0  0  0  0  0  0  0  0  0  0  0
    0.0555   -1.6345    3.0972 H   0  0  0  0  0  0  0  0  0  0  0  0
    1.3439   -1.1698    4.2181 H   0  0  0  0  0  0  0  0  0  0  0  0
    1.7480   -1.7182    2.5901 H   0  0  0  0  0  0  0  0  0  0  0  0
    2.4390    1.2516    3.9568 H   0  0  0  0  0  0  0  0  0  0  0  0
    3.1410    0.4973    2.5237 H   0  0  0  0  0  0  0  0  0  0  0  0
    2.2734    2.0525    2.3923 H   0  0  0  0  0  0  0  0  0  0  0  0
    0.1285    0.8653    3.2354 H   0  0  0  0  0  0  0  0  0  0  0  0
   -1.9508    0.2308    1.7224 C   0  0  0  0  0  0  0  0  0  0  0  0
   -2.5472   -0.9954    2.0537 C   0  0  0  0  0  0  0  0  0  0  0  0
   -2.1578   -1.9221    1.6341 H   0  0  0  0  0  0  0  0  0  0  0  0
   -3.6437   -1.0190    2.9195 C   0  0  0  0  0  0  0  0  0  0  0  0
   -4.1100   -1.9689    3.1783 H   0  0  0  0  0  0  0  0  0  0  0  0
   -4.1443    0.1734    3.4525 C   0  0  0  0  0  0  0  0  0  0  0  0
   -4.9997    0.1511    4.1267 H   0  0  0  0  0  0  0  0  0  0  0  0
   -3.5496    1.3948    3.1187 C   0  0  0  0  0  0  0  0  0  0  0  0
   -3.9433    2.3233    3.5315 H   0  0  0  0  0  0  0  0  0  0  0  0
   -2.4528    1.4287    2.2541 C   0  0  0  0  0  0  0  0  0  0  0  0
   -1.9919    2.3799    1.9868 H   0  0  0  0  0  0  0  0  0  0  0  0
   -1.9361    0.2046   -1.5075 C   0  0  0  0  0  0  0  0  0  0  0  0
   -2.6247   -1.0009   -1.7119 C   0  0  0  0  0  0  0  0  0  0  0  0
   -2.3110   -1.9030   -1.1881 H   0  0  0  0  0  0  0  0  0  0  0  0
   -3.7161   -1.0348   -2.5837 C   0  0  0  0  0  0  0  0  0  0  0  0
   -4.2540   -1.9686   -2.7431 H   0  0  0  0  0  0  0  0  0  0  0  0
   -4.1210    0.1271   -3.2488 C   0  0  0  0  0  0  0  0  0  0  0  0
   -4.9726    0.0971   -3.9274 H   0  0  0  0  0  0  0  0  0  0  0  0
   -3.4360    1.3288   -3.0402 C   0  0  0  0  0  0  0  0  0  0  0  0
   -3.7563    2.2347   -3.5544 H   0  0  0  0  0  0  0  0  0  0  0  0
   -2.3439    1.3729   -2.1702 C   0  0  0  0  0  0  0  0  0  0  0  0
   -1.8158    2.3110   -1.9980 H   0  0  0  0  0  0  0  0  0  0  0  0
    3.1929    2.9517    0.0607 Cl  0  0  0  0  0  0  0  0  0  0  0  0
  2  3  3  0  0  0  0
  1  2  1  0  0  0  0
  5  6  1  0  0  0  0
  5  7  1  0  0  0  0
  5  8  1  0  0  0  0
  4  5  1  0  0  0  0
  1  4  1  0  0  0  0
 10  9  1  0  0  0  0
 11 10  1  0  0  0  0
 12 11  2  0  0  0  0
 12 13  1  0  0  0  0
 13  9  1  0  0  0  0
  1  9  1  0  0  0  0
 14 15  1  0  0  0  0
 15 16  1  0  0  0  0
 16 17  1  0  0  0  0
 16 18  1  0  0  0  0
 16 19  1  0  0  0  0
 14 20  1  0  0  0  0
 14 21  1  0  0  0  0
 14 22  1  0  0  0  0
 15 23  1  0  0  0  0
 13 15  1  0  0  0  0
 24 25  1  0  0  0  0
 25 26  1  0  0  0  0
 26 27  1  0  0  0  0
 26 28  1  0  0  0  0
 26 29  1  0  0  0  0
 24 30  1  0  0  0  0
 24 31  1  0  0  0  0
 24 32  1  0  0  0  0
 25 33  1  0  0  0  0
 10 25  1  0  0  0  0
 35 34  1  0  0  0  0
 36 35  1  0  0  0  0
 37 35  2  0  0  0  0
 38 37  1  0  0  0  0
 39 37  1  0  0  0  0
 40 39  1  0  0  0  0
 41 39  2  0  0  0  0
 42 41  1  0  0  0  0
 43 34  2  0  0  0  0
 44 43  1  0  0  0  0
 41 43  1  0  0  0  0
 11 34  1  0  0  0  0
 46 45  1  0  0  0  0
 47 46  1  0  0  0  0
 48 46  2  0  0  0  0
 49 48  1  0  0  0  0
 50 48  1  0  0  0  0
 51 50  1  0  0  0  0
 52 50  2  0  0  0  0
 53 52  1  0  0  0  0
 54 45  2  0  0  0  0
 55 54  1  0  0  0  0
 52 54  1  0  0  0  0
 12 45  1  0  0  0  0
  1 56  1  0  0  0  0
M  END
> <PM6_ENERGY>
-1.834

> <UID>
QZTZYYUPMRNTIZ-MWAUZUGBNA-L

> <FITNESS>
1.14529

> <GCODE>
953

> <GraphENC>
953 72_1_0,79_64_1,97_19_1,88_67_1,15405_33_1,15179_33_1,15191_22_1,15407_22_1, 72_0_79_0_SINGLE_Xlig:0_Xlig:1,72_2_97_0_SINGLE_scaff:0_MImidazolylidene:1,72_1_88_0_SINGLE_Xlig:0_Xlig:1,97_4_15405_0_SINGLE_LImidazolylideneSubNL:0_SubRM:1,97_1_15179_0_SINGLE_LImidazolylideneSubNL:0_SubRM:1,97_2_15191_0_SINGLE_LImidazolylideneSubCS:0_LImidazolylideneSubCS:1,97_3_15407_0_SINGLE_LImidazolylideneSubCS:0_LImidazolylideneSubCS:1, SymmetricSet [symIds=[15405, 15179]] SymmetricSet [symIds=[15191, 15407]] 

> <GraphJson>
{
  "graphId": 953,
  "gVertices": [
    {
      "lstAPs": [
        {
          "id": 21530,
          "atomPositionNumber": 0,
          "atomPositionNumberInMol": 0,
          "apClass": {
            "rule": "Xlig",
            "subClass": 0,
            "bndTyp": "SINGLE"
          },
          "dirVec": {
            "x": -2.3339,
            "y": -0.0087,
            "z": 0.8172
          }
        },
        {
          "id": 21531,
          "atomPositionNumber": 0,
          "atomPositionNumberInMol": 0,
          "apClass": {
            "rule": "Xlig",
            "subClass": 0,
            "bndTyp": "SINGLE"
          },
          "dirVec": {
            "x": 2.336,
            "y": -5.0E-4,
            "z": 0.829
          }
        },
        {
          "id": 21532,
          "atomPositionNumber": 0,
          "atomPositionNumberInMol": 0,
          "apClass": {
            "rule": "scaff",
            "subClass": 0,
            "bndTyp": "SINGLE"
          },
          "dirVec": {
            "x": -0.0095,
            "y": 0.0046,
            "z": -1.7113
          }
        }
      ],
      "lstSymAPs": [
        {
          "symIds": [
            0,
            1
          ]
        }
      ],
      "mol": {
        "atoms": [
          {
            "elSymbol": "Pt",
            "p3d": {
              "x": -0.0098,
              "y": 0.0049,
              "z": 0.6289
            }
          },
          {
            "elSymbol": "C",
            "p3d": {
              "x": -6.0E-4,
              "y": 0.0016,
              "z": 2.5609
            }
          },
          {
            "elSymbol": "O",
            "p3d": {
              "x": 0.0025,
              "y": -0.0041,
              "z": 3.6974
            }
          },
          {
            "elSymbol": "Du",
            "p3d": {
              "x": -0.007,
              "y": 1.0013,
              "z": 0.6372
            }
          },
          {
            "elSymbol": "Du",
            "p3d": {
              "x": -0.0014,
              "y": 0.9902,
              "z": 2.5698
            }
          }
        ],
        "bonds": [
          {
            "atomIds": [
              1,
              2
            ],
            "bo": "TRIPLE"
          },
          {
            "atomIds": [
              0,
              1
            ],
            "bo": "SINGLE"
          },
          {
            "atomIds": [
              3,
              0
            ],
            "bo": "SINGLE"
          },
          {
            "atomIds": [
              4,
              1
            ],
            "bo": "SINGLE"
          }
        ]
      },
      "vertexId": 72,
      "buildingBlockId": 0,
      "buildingBlockType": "SCAFFOLD",
      "isRCV": false,
      "properties": {
        "ATTACHMENT_POINTS": "1#Xlig:0:SINGLE:-2.3339%-0.0087%0.8172,Xlig:0:SINGLE:2.3360%-0.0005%0.8290,scaff:0:SINGLE:-0.0095%0.0046%-1.7113 "
      },
      "uniquefyingPropertyKeys": [],
      "allowedMutationTypes": [
        "DELETE",
        "EXTEND",
        "CHANGEBRANCH",
        "CHANGELINK",
        "ADDLINK",
        "DELETELINK",
        "DELETECHAIN"
      ],
      "vertexType": "MolecularFragment"
    },
    {
      "lstAPs": [
        {
          "id": 21533,
          "atomPositionNumber": 0,
          "atomPositionNumberInMol": 5,
          "apClass": {
            "rule": "Xlig",
            "subClass": 1,
            "bndTyp": "SINGLE"
          },
          "dirVec": {
            "x": -0.102,
            "y": 0.0185,
            "z": -1.0265
          }
        }
      ],
      "lstSymAPs": [],
      "mol": {
        "atoms": [
          {
            "elSymbol": "S",
            "p3d": {
              "x": -0.3267,
              "y": 2.3403,
              "z": -1.0022
            }
          },
          {
            "elSymbol": "C",
            "p3d": {
              "x": -0.626,
              "y": 2.4866,
              "z": 0.7805
            }
          },
          {
            "elSymbol": "H",
            "p3d": {
              "x": 0.1766,
              "y": 3.089,
              "z": 1.2414
            }
          },
          {
            "elSymbol": "H",
            "p3d": {
              "x": -0.651,
              "y": 1.5065,
              "z": 1.2643
            }
          },
          {
            "elSymbol": "H",
            "p3d": {
              "x": -1.5658,
              "y": 2.981,
              "z": 0.9515
            }
          }
        ],
        "bonds": [
          {
            "atomIds": [
              1,
              2
            ],
            "bo": "SINGLE"
          },
          {
            "atomIds": [
              1,
              3
            ],
            "bo": "SINGLE"
          },
          {
            "atomIds": [
              1,
              4
            ],
            "bo": "SINGLE"
          },
          {
            "atomIds": [
              0,
              1
            ],
            "bo": "SINGLE"
          }
        ]
      },
      "vertexId": 79,
      "buildingBlockId": 63,
      "buildingBlockType": "FRAGMENT",
      "isRCV": false,
      "properties": {
        "ATTACHMENT_POINTS": "1#Xlig:1:SINGLE:-0.1020%0.0185%-1.0265 "
      },
      "uniquefyingPropertyKeys": [],
      "allowedMutationTypes": [
        "DELETE",
        "EXTEND",
        "CHANGEBRANCH",
        "CHANGELINK",
        "ADDLINK",
        "DELETELINK",
        "DELETECHAIN"
      ],
      "vertexType": "MolecularFragment"
    },
    {
      "lstAPs": [
        {
          "id": 21534,
          "atomPositionNumber": 0,
          "atomPositionNumberInMol": 10,
          "apClass": {
            "rule": "MImidazolylidene",
            "subClass": 1,
            "bndTyp": "SINGLE"
          },
          "dirVec": {
            "x": 6.9056,
            "y": 0.097,
            "z": 12.1004
          }
        },
        {
          "id": 21535,
          "atomPositionNumber": 1,
          "atomPositionNumberInMol": 11,
          "apClass": {
            "rule": "LImidazolylideneSubNL",
            "subClass": 0,
            "bndTyp": "SINGLE"
          },
          "dirVec": {
            "x": 4.1123,
            "y": 2.1609,
            "z": 11.1322
          }
        },
        {
          "id": 21536,
          "atomPositionNumber": 2,
          "atomPositionNumberInMol": 12,
          "apClass": {
            "rule": "LImidazolylideneSubCS",
            "subClass": 0,
            "bndTyp": "SINGLE"
          },
          "dirVec": {
            "x": 2.203,
            "y": 3.3086,
            "z": 13.3341
          }
        },
        {
          "id": 21537,
          "atomPositionNumber": 3,
          "atomPositionNumberInMol": 13,
          "apClass": {
            "rule": "LImidazolylideneSubCS",
            "subClass": 0,
            "bndTyp": "SINGLE"
          },
          "dirVec": {
            "x": 3.4334,
            "y": 2.3948,
            "z": 16.1586
          }
        },
        {
          "id": 21538,
          "atomPositionNumber": 4,
          "atomPositionNumberInMol": 14,
          "apClass": {
            "rule": "LImidazolylideneSubNL",
            "subClass": 0,
            "bndTyp": "SINGLE"
          },
          "dirVec": {
            "x": 5.9067,
            "y": 0.5846,
            "z": 15.5163
          }
        }
      ],
      "lstSymAPs": [
        {
          "symIds": [
            1,
            4
          ]
        },
        {
          "symIds": [
            2,
            3
          ]
        }
      ],
      "mol": {
        "atoms": [
          {
            "elSymbol": "C",
            "p3d": {
              "x": 5.2812,
              "y": 1.2018,
              "z": 13.1656
            }
          },
          {
            "elSymbol": "N",
            "p3d": {
              "x": 4.2675,
              "y": 1.9426,
              "z": 12.5989
            }
          },
          {
            "elSymbol": "C",
            "p3d": {
              "x": 3.4407,
              "y": 2.4761,
              "z": 13.582
            }
          },
          {
            "elSymbol": "C",
            "p3d": {
              "x": 3.9357,
              "y": 2.0507,
              "z": 14.777
            }
          },
          {
            "elSymbol": "N",
            "p3d": {
              "x": 5.0694,
              "y": 1.2634,
              "z": 14.5115
            }
          }
        ],
        "bonds": [
          {
            "atomIds": [
              1,
              0
            ],
            "bo": "SINGLE"
          },
          {
            "atomIds": [
              2,
              1
            ],
            "bo": "SINGLE"
          },
          {
            "atomIds": [
              3,
              2
            ],
            "bo": "DOUBLE"
          },
          {
            "atomIds": [
              3,
              4
            ],
            "bo": "SINGLE"
          },
          {
            "atomIds": [
              4,
              0
            ],
            "bo": "SINGLE"
          }
        ]
      },
      "vertexId": 97,
      "buildingBlockId": 18,
      "buildingBlockType": "FRAGMENT",
      "isRCV": false,
      "properties": {
        "ATTACHMENT_POINTS": "1#MImidazolylidene:1:SINGLE:6.9056%0.0970%12.1004 2#LImidazolylideneSubNL:0:SINGLE:4.1123%2.1609%11.1322 3#LImidazolylideneSubCS:0:SINGLE:2.2030%3.3086%13.3341 4#LImidazolylideneSubCS:0:SINGLE:3.4334%2.3948%16.1586 5#LImidazolylideneSubNL:0:SINGLE:5.9067%0.5846%15.5163 "
      },
      "uniquefyingPropertyKeys": [],
      "allowedMutationTypes": [
        "DELETE",
        "EXTEND",
        "CHANGEBRANCH",
        "CHANGELINK",
        "ADDLINK",
        "DELETELINK",
        "DELETECHAIN"
      ],
      "vertexType": "MolecularFragment"
    },
    {
      "lstAPs": [
        {
          "id": 21539,
          "atomPositionNumber": 0,
          "atomPositionNumberInMol": 57,
          "apClass": {
            "rule": "Xlig",
            "subClass": 1,
            "bndTyp": "SINGLE"
          },
          "dirVec": {
            "x": -0.0053,
            "y": -0.0027,
            "z": 0.63
          }
        }
      ],
      "lstSymAPs": [],
      "mol": {
        "atoms": [
          {
            "elSymbol": "Cl",
            "p3d": {
              "x": 2.3243,
              "y": -0.0063,
              "z": 0.8189
            }
          }
        ],
        "bonds": []
      },
      "vertexId": 88,
      "buildingBlockId": 66,
      "buildingBlockType": "FRAGMENT",
      "isRCV": false,
      "properties": {
        "ATTACHMENT_POINTS": "1#Xlig:1:SINGLE:-0.0053%-0.0027%0.6300 "
      },
      "uniquefyingPropertyKeys": [],
      "allowedMutationTypes": [
        "DELETE",
        "EXTEND",
        "CHANGEBRANCH",
        "CHANGELINK",
        "ADDLINK",
        "DELETELINK",
        "DELETECHAIN"
      ],
      "vertexType": "MolecularFragment"
    },
    {
      "lstAPs": [
        {
          "id": 21582,
          "atomPositionNumber": 1,
          "atomPositionNumberInMol": 16,
          "apClass": {
            "rule": "SubRM",
            "subClass": 1,
            "bndTyp": "SINGLE"
          },
          "dirVec": {
            "x": 0.2868,
            "y": 0.385,
            "z": -0.643
          }
        }
      ],
      "lstSymAPs": [],
      "mol": {
        "atoms": [
          {
            "elSymbol": "C",
            "p3d": {
              "x": 1.141,
              "y": 1.0262,
              "z": 1.6347
            }
          },
          {
            "elSymbol": "C",
            "p3d": {
              "x": 0.3967,
              "y": -0.0479,
              "z": 0.8227
            }
          },
          {
            "elSymbol": "C",
            "p3d": {
              "x": 1.1459,
              "y": -1.371,
              "z": 0.9201
            }
          },
          {
            "elSymbol": "H",
            "p3d": {
              "x": 2.1461,
              "y": -1.2583,
              "z": 0.4976
            }
          },
          {
            "elSymbol": "H",
            "p3d": {
              "x": 0.6013,
              "y": -2.1408,
              "z": 0.3461
            }
          },
          {
            "elSymbol": "H",
            "p3d": {
              "x": 1.2113,
              "y": -1.6946,
              "z": 1.9559
            }
          },
          {
            "elSymbol": "H",
            "p3d": {
              "x": 2.1541,
              "y": 1.1435,
              "z": 1.2119
            }
          },
          {
            "elSymbol": "H",
            "p3d": {
              "x": 0.6143,
              "y": 1.976,
              "z": 1.5626
            }
          },
          {
            "elSymbol": "H",
            "p3d": {
              "x": 1.2058,
              "y": 0.7088,
              "z": 2.6868
            }
          },
          {
            "elSymbol": "H",
            "p3d": {
              "x": -0.6215,
              "y": -0.1789,
              "z": 1.2377
            }
          }
        ],
        "bonds": [
          {
            "atomIds": [
              0,
              1
            ],
            "bo": "SINGLE"
          },
          {
            "atomIds": [
              1,
              2
            ],
            "bo": "SINGLE"
          },
          {
            "atomIds": [
              2,
              3
            ],
            "bo": "SINGLE"
          },
          {
            "atomIds": [
              2,
              4
            ],
            "bo": "SINGLE"
          },
          {
            "atomIds": [
              2,
              5
            ],
            "bo": "SINGLE"
          },
          {
            "atomIds": [
              0,
              6
            ],
            "bo": "SINGLE"
          },
          {
            "atomIds": [
              0,
              7
            ],
            "bo": "SINGLE"
          },
          {
            "atomIds": [
              0,
              8
            ],
            "bo": "SINGLE"
          },
          {
            "atomIds": [
              1,
              9
            ],
            "bo": "SINGLE"
          }
        ]
      },
      "vertexId": 15405,
      "buildingBlockId": 32,
      "buildingBlockType": "FRAGMENT",
      "isRCV": false,
      "properties": {
        "ATTACHMENT_POINTS": "2#SubRM:1:SINGLE:0.2868%0.3850%-0.6430 "
      },
      "uniquefyingPropertyKeys": [],
      "allowedMutationTypes": [
        "DELETE",
        "EXTEND",
        "CHANGEBRANCH",
        "CHANGELINK",
        "ADDLINK",
        "DELETELINK",
        "DELETECHAIN"
      ],
      "vertexType": "MolecularFragment"
    },
    {
      "lstAPs": [
        {
          "id": 21583,
          "atomPositionNumber": 1,
          "atomPositionNumberInMol": 26,
          "apClass": {
            "rule": "SubRM",
            "subClass": 1,
            "bndTyp": "SINGLE"
          },
          "dirVec": {
            "x": 0.2868,
            "y": 0.385,
            "z": -0.643
          }
        }
      ],
      "lstSymAPs": [],
      "mol": {
        "atoms": [
          {
            "elSymbol": "C",
            "p3d": {
              "x": 1.141,
              "y": 1.0262,
              "z": 1.6347
            }
          },
          {
            "elSymbol": "C",
            "p3d": {
              "x": 0.3967,
              "y": -0.0479,
              "z": 0.8227
            }
          },
          {
            "elSymbol": "C",
            "p3d": {
              "x": 1.1459,
              "y": -1.371,
              "z": 0.9201
            }
          },
          {
            "elSymbol": "H",
            "p3d": {
              "x": 2.1461,
              "y": -1.2583,
              "z": 0.4976
            }
          },
          {
            "elSymbol": "H",
            "p3d": {
              "x": 0.6013,
              "y": -2.1408,
              "z": 0.3461
            }
          },
          {
            "elSymbol": "H",
            "p3d": {
              "x": 1.2113,
              "y": -1.6946,
              "z": 1.9559
            }
          },
          {
            "elSymbol": "H",
            "p3d": {
              "x": 2.1541,
              "y": 1.1435,
              "z": 1.2119
            }
          },
          {
            "elSymbol": "H",
            "p3d": {
              "x": 0.6143,
              "y": 1.976,
              "z": 1.5626
            }
          },
          {
            "elSymbol": "H",
            "p3d": {
              "x": 1.2058,
              "y": 0.7088,
              "z": 2.6868
            }
          },
          {
            "elSymbol": "H",
            "p3d": {
              "x": -0.6215,
              "y": -0.1789,
              "z": 1.2377
            }
          }
        ],
        "bonds": [
          {
            "atomIds": [
              0,
              1
            ],
            "bo": "SINGLE"
          },
          {
            "atomIds": [
              1,
              2
            ],
            "bo": "SINGLE"
          },
          {
            "atomIds": [
              2,
              3
            ],
            "bo": "SINGLE"
          },
          {
            "atomIds": [
              2,
              4
            ],
            "bo": "SINGLE"
          },
          {
            "atomIds": [
              2,
              5
            ],
            "bo": "SINGLE"
          },
          {
            "atomIds": [
              0,
              6
            ],
            "bo": "SINGLE"
          },
          {
            "atomIds": [
              0,
              7
            ],
            "bo": "SINGLE"
          },
          {
            "atomIds": [
              0,
              8
            ],
            "bo": "SINGLE"
          },
          {
            "atomIds": [
              1,
              9
            ],
            "bo": "SINGLE"
          }
        ]
      },
      "vertexId": 15179,
      "buildingBlockId": 32,
      "buildingBlockType": "FRAGMENT",
      "isRCV": false,
      "properties": {
        "ATTACHMENT_POINTS": "2#SubRM:1:SINGLE:0.2868%0.3850%-0.6430 "
      },
      "uniquefyingPropertyKeys": [],
      "allowedMutationTypes": [
        "DELETE",
        "EXTEND",
        "CHANGEBRANCH",
        "CHANGELINK",
        "ADDLINK",
        "DELETELINK",
        "DELETECHAIN"
      ],
      "vertexType": "MolecularFragment"
    },
    {
      "lstAPs": [
        {
          "id": 21584,
          "atomPositionNumber": 0,
          "atomPositionNumberInMol": 35,
          "apClass": {
            "rule": "LImidazolylideneSubCS",
            "subClass": 1,
            "bndTyp": "SINGLE"
          },
          "dirVec": {
            "x": -0.2332,
            "y": -4.1999,
            "z": 3.5795
          }
        }
      ],
      "lstSymAPs": [],
      "mol": {
        "atoms": [
          {
            "elSymbol": "C",
            "p3d": {
              "x": 0.8656,
              "y": -5.2062,
              "z": 3.807
            }
          },
          {
            "elSymbol": "C",
            "p3d": {
              "x": 1.054,
              "y": -6.2399,
              "z": 2.8975
            }
          },
          {
            "elSymbol": "H",
            "p3d": {
              "x": 0.3991,
              "y": -6.3501,
              "z": 2.038
            }
          },
          {
            "elSymbol": "C",
            "p3d": {
              "x": 2.0673,
              "y": -7.188,
              "z": 3.1349
            }
          },
          {
            "elSymbol": "H",
            "p3d": {
              "x": 2.2054,
              "y": -7.9981,
              "z": 2.4322
            }
          },
          {
            "elSymbol": "C",
            "p3d": {
              "x": 2.901,
              "y": -7.078,
              "z": 4.2128
            }
          },
          {
            "elSymbol": "H",
            "p3d": {
              "x": 3.6958,
              "y": -7.8112,
              "z": 4.3872
            }
          },
          {
            "elSymbol": "C",
            "p3d": {
              "x": 2.7401,
              "y": -6.0405,
              "z": 5.1034
            }
          },
          {
            "elSymbol": "H",
            "p3d": {
              "x": 3.412,
              "y": -5.9498,
              "z": 5.9565
            }
          },
          {
            "elSymbol": "C",
            "p3d": {
              "x": 1.7365,
              "y": -5.0846,
              "z": 4.9051
            }
          },
          {
            "elSymbol": "H",
            "p3d": {
              "x": 1.6174,
              "y": -4.2762,
              "z": 5.6042
            }
          }
        ],
        "bonds": [
          {
            "atomIds": [
              1,
              0
            ],
            "bo": "SINGLE"
          },
          {
            "atomIds": [
              2,
              1
            ],
            "bo": "SINGLE"
          },
          {
            "atomIds": [
              3,
              1
            ],
            "bo": "DOUBLE"
          },
          {
            "atomIds": [
              4,
              3
            ],
            "bo": "SINGLE"
          },
          {
            "atomIds": [
              5,
              3
            ],
            "bo": "SINGLE"
          },
          {
            "atomIds": [
              6,
              5
            ],
            "bo": "SINGLE"
          },
          {
            "atomIds": [
              7,
              5
            ],
            "bo": "DOUBLE"
          },
          {
            "atomIds": [
              8,
              7
            ],
            "bo": "SINGLE"
          },
          {
            "atomIds": [
              9,
              0
            ],
            "bo": "DOUBLE"
          },
          {
            "atomIds": [
              10,
              9
            ],
            "bo": "SINGLE"
          },
          {
            "atomIds": [
              7,
              9
            ],
            "bo": "SINGLE"
          }
        ]
      },
      "vertexId": 15191,
      "buildingBlockId": 21,
      "buildingBlockType": "FRAGMENT",
      "isRCV": false,
      "properties": {
        "ATTACHMENT_POINTS": "1#LImidazolylideneSubCS:1:SINGLE:-0.2332%-4.1999%3.5795 "
      },
      "uniquefyingPropertyKeys": [],
      "allowedMutationTypes": [
        "DELETE",
        "EXTEND",
        "CHANGEBRANCH",
        "CHANGELINK",
        "ADDLINK",
        "DELETELINK",
        "DELETECHAIN"
      ],
      "vertexType": "MolecularFragment"
    },
    {
      "lstAPs": [
        {
          "id": 21585,
          "atomPositionNumber": 0,
          "atomPositionNumberInMol": 46,
          "apClass": {
            "rule": "LImidazolylideneSubCS",
            "subClass": 1,
            "bndTyp": "SINGLE"
          },
          "dirVec": {
            "x": -0.2332,
            "y": -4.1999,
            "z": 3.5795
          }
        }
      ],
      "lstSymAPs": [],
      "mol": {
        "atoms": [
          {
            "elSymbol": "C",
            "p3d": {
              "x": 0.8656,
              "y": -5.2062,
              "z": 3.807
            }
          },
          {
            "elSymbol": "C",
            "p3d": {
              "x": 1.054,
              "y": -6.2399,
              "z": 2.8975
            }
          },
          {
            "elSymbol": "H",
            "p3d": {
              "x": 0.3991,
              "y": -6.3501,
              "z": 2.038
            }
          },
          {
            "elSymbol": "C",
            "p3d": {
              "x": 2.0673,
              "y": -7.188,
              "z": 3.1349
            }
          },
          {
            "elSymbol": "H",
            "p3d": {
              "x": 2.2054,
              "y": -7.9981,
              "z": 2.4322
            }
          },
          {
            "elSymbol": "C",
            "p3d": {
              "x": 2.901,
              "y": -7.078,
              "z": 4.2128
            }
          },
          {
            "elSymbol": "H",
            "p3d": {
              "x": 3.6958,
              "y": -7.8112,
              "z": 4.3872
            }
          },
          {
            "elSymbol": "C",
            "p3d": {
              "x": 2.7401,
              "y": -6.0405,
              "z": 5.1034
            }
          },
          {
            "elSymbol": "H",
            "p3d": {
              "x": 3.412,
              "y": -5.9498,
              "z": 5.9565
            }
          },
          {
            "elSymbol": "C",
            "p3d": {
              "x": 1.7365,
              "y": -5.0846,
              "z": 4.9051
            }
          },
          {
            "elSymbol": "H",
            "p3d": {
              "x": 1.6174,
              "y": -4.2762,
              "z": 5.6042
            }
          }
        ],
        "bonds": [
          {
            "atomIds": [
              1,
              0
            ],
            "bo": "SINGLE"
          },
          {
            "atomIds": [
              2,
              1
            ],
            "bo": "SINGLE"
          },
          {
            "atomIds": [
              3,
              1
            ],
            "bo": "DOUBLE"
          },
          {
            "atomIds": [
              4,
              3
            ],
            "bo": "SINGLE"
          },
          {
            "atomIds": [
              5,
              3
            ],
            "bo": "SINGLE"
          },
          {
            "atomIds": [
              6,
              5
            ],
            "bo": "SINGLE"
          },
          {
            "atomIds": [
              7,
              5
            ],
            "bo": "DOUBLE"
          },
          {
            "atomIds": [
              8,
              7
            ],
            "bo": "SINGLE"
          },
          {
            "atomIds": [
              9,
              0
            ],
            "bo": "DOUBLE"
          },
          {
            "atomIds": [
              10,
              9
            ],
            "bo": "SINGLE"
          },
          {
            "atomIds": [
              7,
              9
            ],
            "bo": "SINGLE"
          }
        ]
      },
      "vertexId": 15407,
      "buildingBlockId": 21,
      "buildingBlockType": "FRAGMENT",
      "isRCV": false,
      "properties": {
        "ATTACHMENT_POINTS": "1#LImidazolylideneSubCS:1:SINGLE:-0.2332%-4.1999%3.5795 "
      },
      "uniquefyingPropertyKeys": [],
      "allowedMutationTypes": [
        "DELETE",
        "EXTEND",
        "CHANGEBRANCH",
        "CHANGELINK",
        "ADDLINK",
        "DELETELINK",
        "DELETECHAIN"
      ],
      "vertexType": "MolecularFragment"
    }
  ],
  "gEdges": [
    {
      "srcAPID": 21530,
      "trgAPID": 21533,
      "bondType": "SINGLE"
    },
    {
      "srcAPID": 21532,
      "trgAPID": 21534,
      "bondType": "SINGLE"
    },
    {
      "srcAPID": 21531,
      "trgAPID": 21539,
      "bondType": "SINGLE"
    },
    {
      "srcAPID": 21538,
      "trgAPID": 21582,
      "bondType": "SINGLE"
    },
    {
      "srcAPID": 21535,
      "trgAPID": 21583,
      "bondType": "SINGLE"
    },
    {
      "srcAPID": 21536,
      "trgAPID": 21584,
      "bondType": "SINGLE"
    },
    {
      "srcAPID": 21537,
      "trgAPID": 21585,
      "bondType": "SINGLE"
    }
  ],
  "gRings": [],
  "symVertices": [
    {
      "symIds": [
        15405,
        15179
      ]
    },
    {
      "symIds": [
        15191,
        15407
      ]
    }
  ]
}

> <SMILES>
[Pt](C#O)(SC([H])([H])[H])([C]1N(C(=C(N1C(C([H])([H])[H])(C([H])([H])[H])[H])C=2C([H])=C([H])C([H])=C([H])C2[H])C=3C([H])=C([H])C([H])=C([H])C3[H])C(C([H])([H])[H])(C([H])([H])[H])[H])Cl

$$$$
