M00014904
  CDK     04222213593D

 31 31  0  0  0  0  0  0  0  0999 V2000
    2.1740   -0.0382   -0.0072 Pt  0  0  0  0  0  0  0  0  0  0  0  0
    4.1019   -0.0200   -0.0085 C   0  0  0  0  0  0  0  0  0  0  0  0
    5.2455   -0.0093   -0.0091 O   0  0  0  0  0  0  0  0  0  0  0  0
    2.2060   -2.3526    0.0500 Cl  0  0  0  0  0  0  0  0  0  0  0  0
   -0.5181   -0.2024    1.1737 N   0  0  0  0  0  0  0  0  0  0  0  0
   -0.5216    0.0709   -1.1855 N   0  0  0  0  0  0  0  0  0  0  0  0
    0.1399   -0.0584   -0.0060 C   0  0  0  0  0  0  0  0  0  0  0  0
   -2.0044   -0.2159    1.2519 C   0  0  0  0  0  0  0  0  0  0  0  0
   -2.3283    0.2433    2.2127 H   0  0  0  0  0  0  0  0  0  0  0  0
   -2.3522   -1.2752    1.2552 H   0  0  0  0  0  0  0  0  0  0  0  0
   -2.6071    0.5500    0.0659 C   0  0  0  0  0  0  0  0  0  0  0  0
   -2.4214    1.6391    0.1856 H   0  0  0  0  0  0  0  0  0  0  0  0
   -3.7073    0.4282    0.0537 H   0  0  0  0  0  0  0  0  0  0  0  0
   -2.0080    0.0609   -1.2603 C   0  0  0  0  0  0  0  0  0  0  0  0
   -2.3512   -0.9745   -1.4907 H   0  0  0  0  0  0  0  0  0  0  0  0
   -2.3407    0.7119   -2.0993 H   0  0  0  0  0  0  0  0  0  0  0  0
    0.5340    1.0287    3.0671 C   0  0  0  0  0  0  0  0  0  0  0  0
    0.2674   -0.3330    2.4374 C   0  0  0  0  0  0  0  0  0  0  0  0
   -0.3870    1.5707    3.3073 H   0  0  0  0  0  0  0  0  0  0  0  0
    1.1107    0.9264    3.9950 H   0  0  0  0  0  0  0  0  0  0  0  0
    1.1206    1.6777    2.3935 H   0  0  0  0  0  0  0  0  0  0  0  0
    1.2371   -0.8540    2.2094 H   0  0  0  0  0  0  0  0  0  0  0  0
   -0.2903   -0.9969    3.1346 H   0  0  0  0  0  0  0  0  0  0  0  0
    0.5255   -1.1476   -3.0857 C   0  0  0  0  0  0  0  0  0  0  0  0
    0.2613    0.2118   -2.4498 C   0  0  0  0  0  0  0  0  0  0  0  0
   -0.3969   -1.6821   -3.3366 H   0  0  0  0  0  0  0  0  0  0  0  0
    1.1098   -1.0427   -4.0085 H   0  0  0  0  0  0  0  0  0  0  0  0
    1.1038   -1.8036   -2.4120 H   0  0  0  0  0  0  0  0  0  0  0  0
    1.2318    0.7317   -2.2217 H   0  0  0  0  0  0  0  0  0  0  0  0
   -0.2973    0.8785   -3.1437 H   0  0  0  0  0  0  0  0  0  0  0  0
    2.1625    2.2768   -0.0684 Cl  0  0  0  0  0  0  0  0  0  0  0  0
  2  3  3  0  0  0  0
  1  2  1  0  0  0  0
  1  4  1  0  0  0  0
  5  7  1  0  0  0  0
  6  7  1  0  0  0  0
  8  5  1  0  0  0  0
  9  8  1  0  0  0  0
 10  8  1  0  0  0  0
 11  8  1  0  0  0  0
 12 11  1  0  0  0  0
 13 11  1  0  0  0  0
 14  6  1  0  0  0  0
 15 14  1  0  0  0  0
 16 14  1  0  0  0  0
 11 14  1  0  0  0  0
  1  7  1  0  0  0  0
 17 18  1  0  0  0  0
 17 19  1  0  0  0  0
 17 20  1  0  0  0  0
 17 21  1  0  0  0  0
 18 22  1  0  0  0  0
 18 23  1  0  0  0  0
  5 18  1  0  0  0  0
 24 25  1  0  0  0  0
 24 26  1  0  0  0  0
 24 27  1  0  0  0  0
 24 28  1  0  0  0  0
 25 29  1  0  0  0  0
 25 30  1  0  0  0  0
  6 25  1  0  0  0  0
  1 31  1  0  0  0  0
M  END
> <PM6_ENERGY>
-309.819

> <UID>
ALBJMGZUCUFWMN-AIKDDRNWNA-L

> <FITNESS>
1.14365

> <GCODE>
16139

> <GraphENC>
16139 72_1_0,82_67_1,91_13_1,88_67_1,331465_32_1,331492_32_1, 72_0_82_0_SINGLE_Xlig:0_Xlig:1,72_2_91_2_SINGLE_scaff:0_M6HPyrimidinylidene:1,72_1_88_0_SINGLE_Xlig:0_Xlig:1,91_0_331465_0_SINGLE_L6HPyrimidinylideneSubN:0_SubRS:1,91_1_331492_0_SINGLE_L6HPyrimidinylideneSubN:0_SubRS:1, SymmetricSet [symIds=[331465, 331492]] 

> <GraphJson>
{
  "graphId": 16139,
  "gVertices": [
    {
      "lstAPs": [
        {
          "id": 431850,
          "atomPositionNumber": 0,
          "atomPositionNumberInMol": 0,
          "apClass": {
            "rule": "Xlig",
            "subClass": 0,
            "bndTyp": "SINGLE"
          },
          "dirVec": {
            "x": -2.3339,
            "y": -0.0087,
            "z": 0.8172
          }
        },
        {
          "id": 431851,
          "atomPositionNumber": 0,
          "atomPositionNumberInMol": 0,
          "apClass": {
            "rule": "Xlig",
            "subClass": 0,
            "bndTyp": "SINGLE"
          },
          "dirVec": {
            "x": 2.336,
            "y": -5.0E-4,
            "z": 0.829
          }
        },
        {
          "id": 431852,
          "atomPositionNumber": 0,
          "atomPositionNumberInMol": 0,
          "apClass": {
            "rule": "scaff",
            "subClass": 0,
            "bndTyp": "SINGLE"
          },
          "dirVec": {
            "x": -0.0095,
            "y": 0.0046,
            "z": -1.7113
          }
        }
      ],
      "lstSymAPs": [
        {
          "symIds": [
            0,
            1
          ]
        }
      ],
      "mol": {
        "atoms": [
          {
            "elSymbol": "Pt",
            "p3d": {
              "x": -0.0098,
              "y": 0.0049,
              "z": 0.6289
            }
          },
          {
            "elSymbol": "C",
            "p3d": {
              "x": -6.0E-4,
              "y": 0.0016,
              "z": 2.5609
            }
          },
          {
            "elSymbol": "O",
            "p3d": {
              "x": 0.0025,
              "y": -0.0041,
              "z": 3.6974
            }
          },
          {
            "elSymbol": "Du",
            "p3d": {
              "x": -0.007,
              "y": 1.0013,
              "z": 0.6372
            }
          },
          {
            "elSymbol": "Du",
            "p3d": {
              "x": -0.0014,
              "y": 0.9902,
              "z": 2.5698
            }
          }
        ],
        "bonds": [
          {
            "atomIds": [
              1,
              2
            ],
            "bo": "TRIPLE"
          },
          {
            "atomIds": [
              0,
              1
            ],
            "bo": "SINGLE"
          },
          {
            "atomIds": [
              3,
              0
            ],
            "bo": "SINGLE"
          },
          {
            "atomIds": [
              4,
              1
            ],
            "bo": "SINGLE"
          }
        ]
      },
      "vertexId": 72,
      "buildingBlockId": 0,
      "buildingBlockType": "SCAFFOLD",
      "isRCV": false,
      "properties": {
        "ATTACHMENT_POINTS": "1#Xlig:0:SINGLE:-2.3339%-0.0087%0.8172,Xlig:0:SINGLE:2.3360%-0.0005%0.8290,scaff:0:SINGLE:-0.0095%0.0046%-1.7113 "
      },
      "uniquefyingPropertyKeys": [],
      "allowedMutationTypes": [
        "DELETE",
        "EXTEND",
        "CHANGEBRANCH",
        "CHANGELINK",
        "ADDLINK",
        "DELETELINK",
        "DELETECHAIN"
      ],
      "vertexType": "MolecularFragment"
    },
    {
      "lstAPs": [
        {
          "id": 431853,
          "atomPositionNumber": 0,
          "atomPositionNumberInMol": 5,
          "apClass": {
            "rule": "Xlig",
            "subClass": 1,
            "bndTyp": "SINGLE"
          },
          "dirVec": {
            "x": -0.0053,
            "y": -0.0027,
            "z": 0.63
          }
        }
      ],
      "lstSymAPs": [],
      "mol": {
        "atoms": [
          {
            "elSymbol": "Cl",
            "p3d": {
              "x": 2.3243,
              "y": -0.0063,
              "z": 0.8189
            }
          }
        ],
        "bonds": []
      },
      "vertexId": 82,
      "buildingBlockId": 66,
      "buildingBlockType": "FRAGMENT",
      "isRCV": false,
      "properties": {
        "ATTACHMENT_POINTS": "1#Xlig:1:SINGLE:-0.0053%-0.0027%0.6300 "
      },
      "uniquefyingPropertyKeys": [],
      "allowedMutationTypes": [
        "DELETE",
        "EXTEND",
        "CHANGEBRANCH",
        "CHANGELINK",
        "ADDLINK",
        "DELETELINK",
        "DELETECHAIN"
      ],
      "vertexType": "MolecularFragment"
    },
    {
      "lstAPs": [
        {
          "id": 431854,
          "atomPositionNumber": 0,
          "atomPositionNumberInMol": 6,
          "apClass": {
            "rule": "L6HPyrimidinylideneSubN",
            "subClass": 0,
            "bndTyp": "SINGLE"
          },
          "dirVec": {
            "x": 3.6986,
            "y": 10.1321,
            "z": 12.1775
          }
        },
        {
          "id": 431855,
          "atomPositionNumber": 1,
          "atomPositionNumberInMol": 7,
          "apClass": {
            "rule": "L6HPyrimidinylideneSubN",
            "subClass": 0,
            "bndTyp": "SINGLE"
          },
          "dirVec": {
            "x": 4.7983,
            "y": 14.0099,
            "z": 14.7771
          }
        },
        {
          "id": 431856,
          "atomPositionNumber": 2,
          "atomPositionNumberInMol": 8,
          "apClass": {
            "rule": "M6HPyrimidinylidene",
            "subClass": 1,
            "bndTyp": "SINGLE"
          },
          "dirVec": {
            "x": 6.012,
            "y": 12.0516,
            "z": 12.7188
          }
        }
      ],
      "lstSymAPs": [
        {
          "symIds": [
            0,
            1
          ]
        }
      ],
      "mol": {
        "atoms": [
          {
            "elSymbol": "N",
            "p3d": {
              "x": 3.3266,
              "y": 11.1346,
              "z": 13.1445
            }
          },
          {
            "elSymbol": "N",
            "p3d": {
              "x": 3.8396,
              "y": 13.0125,
              "z": 14.3399
            }
          },
          {
            "elSymbol": "C",
            "p3d": {
              "x": 4.223,
              "y": 12.0593,
              "z": 13.4858
            }
          },
          {
            "elSymbol": "C",
            "p3d": {
              "x": 1.9257,
              "y": 11.1023,
              "z": 13.6161
            }
          },
          {
            "elSymbol": "H",
            "p3d": {
              "x": 1.5873,
              "y": 10.0735,
              "z": 13.6893
            }
          },
          {
            "elSymbol": "H",
            "p3d": {
              "x": 1.2755,
              "y": 11.6279,
              "z": 12.9065
            }
          },
          {
            "elSymbol": "C",
            "p3d": {
              "x": 1.8556,
              "y": 11.7608,
              "z": 14.9634
            }
          },
          {
            "elSymbol": "H",
            "p3d": {
              "x": 2.3477,
              "y": 11.1349,
              "z": 15.7024
            }
          },
          {
            "elSymbol": "H",
            "p3d": {
              "x": 0.8059,
              "y": 11.86,
              "z": 15.2619
            }
          },
          {
            "elSymbol": "C",
            "p3d": {
              "x": 2.4969,
              "y": 13.1208,
              "z": 14.9163
            }
          },
          {
            "elSymbol": "H",
            "p3d": {
              "x": 1.8796,
              "y": 13.7836,
              "z": 14.3197
            }
          },
          {
            "elSymbol": "H",
            "p3d": {
              "x": 2.5543,
              "y": 13.5401,
              "z": 15.9154
            }
          }
        ],
        "bonds": [
          {
            "atomIds": [
              0,
              2
            ],
            "bo": "SINGLE"
          },
          {
            "atomIds": [
              1,
              2
            ],
            "bo": "SINGLE"
          },
          {
            "atomIds": [
              3,
              0
            ],
            "bo": "SINGLE"
          },
          {
            "atomIds": [
              4,
              3
            ],
            "bo": "SINGLE"
          },
          {
            "atomIds": [
              5,
              3
            ],
            "bo": "SINGLE"
          },
          {
            "atomIds": [
              6,
              3
            ],
            "bo": "SINGLE"
          },
          {
            "atomIds": [
              7,
              6
            ],
            "bo": "SINGLE"
          },
          {
            "atomIds": [
              8,
              6
            ],
            "bo": "SINGLE"
          },
          {
            "atomIds": [
              9,
              1
            ],
            "bo": "SINGLE"
          },
          {
            "atomIds": [
              10,
              9
            ],
            "bo": "SINGLE"
          },
          {
            "atomIds": [
              11,
              9
            ],
            "bo": "SINGLE"
          },
          {
            "atomIds": [
              6,
              9
            ],
            "bo": "SINGLE"
          }
        ]
      },
      "vertexId": 91,
      "buildingBlockId": 12,
      "buildingBlockType": "FRAGMENT",
      "isRCV": false,
      "properties": {
        "ATTACHMENT_POINTS": "1#L6HPyrimidinylideneSubN:0:SINGLE:3.6986%10.1321%12.1775 2#L6HPyrimidinylideneSubN:0:SINGLE:4.7983%14.0099%14.7771 3#M6HPyrimidinylidene:1:SINGLE:6.0120%12.0516%12.7188 "
      },
      "uniquefyingPropertyKeys": [],
      "allowedMutationTypes": [
        "DELETE",
        "EXTEND",
        "CHANGEBRANCH",
        "CHANGELINK",
        "ADDLINK",
        "DELETELINK",
        "DELETECHAIN"
      ],
      "vertexType": "MolecularFragment"
    },
    {
      "lstAPs": [
        {
          "id": 431857,
          "atomPositionNumber": 0,
          "atomPositionNumberInMol": 32,
          "apClass": {
            "rule": "Xlig",
            "subClass": 1,
            "bndTyp": "SINGLE"
          },
          "dirVec": {
            "x": -0.0053,
            "y": -0.0027,
            "z": 0.63
          }
        }
      ],
      "lstSymAPs": [],
      "mol": {
        "atoms": [
          {
            "elSymbol": "Cl",
            "p3d": {
              "x": 2.3243,
              "y": -0.0063,
              "z": 0.8189
            }
          }
        ],
        "bonds": []
      },
      "vertexId": 88,
      "buildingBlockId": 66,
      "buildingBlockType": "FRAGMENT",
      "isRCV": false,
      "properties": {
        "ATTACHMENT_POINTS": "1#Xlig:1:SINGLE:-0.0053%-0.0027%0.6300 "
      },
      "uniquefyingPropertyKeys": [],
      "allowedMutationTypes": [
        "DELETE",
        "EXTEND",
        "CHANGEBRANCH",
        "CHANGELINK",
        "ADDLINK",
        "DELETELINK",
        "DELETECHAIN"
      ],
      "vertexType": "MolecularFragment"
    },
    {
      "lstAPs": [
        {
          "id": 431890,
          "atomPositionNumber": 1,
          "atomPositionNumberInMol": 19,
          "apClass": {
            "rule": "SubRS",
            "subClass": 1,
            "bndTyp": "SINGLE"
          },
          "dirVec": {
            "x": 0.2985,
            "y": 0.384,
            "z": -0.6258
          }
        }
      ],
      "lstSymAPs": [],
      "mol": {
        "atoms": [
          {
            "elSymbol": "C",
            "p3d": {
              "x": -1.0244,
              "y": -0.2225,
              "z": 1.3991
            }
          },
          {
            "elSymbol": "C",
            "p3d": {
              "x": 0.3973,
              "y": -0.042,
              "z": 0.8195
            }
          },
          {
            "elSymbol": "H",
            "p3d": {
              "x": -1.5635,
              "y": -0.9908,
              "z": 0.8263
            }
          },
          {
            "elSymbol": "H",
            "p3d": {
              "x": -0.941,
              "y": -0.535,
              "z": 2.446
            }
          },
          {
            "elSymbol": "H",
            "p3d": {
              "x": -1.5586,
              "y": 0.7335,
              "z": 1.3382
            }
          },
          {
            "elSymbol": "H",
            "p3d": {
              "x": 0.9335,
              "y": 0.7221,
              "z": 1.4011
            }
          },
          {
            "elSymbol": "H",
            "p3d": {
              "x": 0.927,
              "y": -1.0102,
              "z": 0.9001
            }
          }
        ],
        "bonds": [
          {
            "atomIds": [
              0,
              1
            ],
            "bo": "SINGLE"
          },
          {
            "atomIds": [
              0,
              2
            ],
            "bo": "SINGLE"
          },
          {
            "atomIds": [
              0,
              3
            ],
            "bo": "SINGLE"
          },
          {
            "atomIds": [
              0,
              4
            ],
            "bo": "SINGLE"
          },
          {
            "atomIds": [
              1,
              5
            ],
            "bo": "SINGLE"
          },
          {
            "atomIds": [
              1,
              6
            ],
            "bo": "SINGLE"
          }
        ]
      },
      "vertexId": 331465,
      "buildingBlockId": 31,
      "buildingBlockType": "FRAGMENT",
      "isRCV": false,
      "properties": {
        "ATTACHMENT_POINTS": "2#SubRS:1:SINGLE:0.2985%0.3840%-0.6258 "
      },
      "uniquefyingPropertyKeys": [],
      "allowedMutationTypes": [
        "DELETE",
        "EXTEND",
        "CHANGEBRANCH",
        "CHANGELINK",
        "ADDLINK",
        "DELETELINK",
        "DELETECHAIN"
      ],
      "vertexType": "MolecularFragment"
    },
    {
      "lstAPs": [
        {
          "id": 431891,
          "atomPositionNumber": 1,
          "atomPositionNumberInMol": 26,
          "apClass": {
            "rule": "SubRS",
            "subClass": 1,
            "bndTyp": "SINGLE"
          },
          "dirVec": {
            "x": 0.2985,
            "y": 0.384,
            "z": -0.6258
          }
        }
      ],
      "lstSymAPs": [],
      "mol": {
        "atoms": [
          {
            "elSymbol": "C",
            "p3d": {
              "x": -1.0244,
              "y": -0.2225,
              "z": 1.3991
            }
          },
          {
            "elSymbol": "C",
            "p3d": {
              "x": 0.3973,
              "y": -0.042,
              "z": 0.8195
            }
          },
          {
            "elSymbol": "H",
            "p3d": {
              "x": -1.5635,
              "y": -0.9908,
              "z": 0.8263
            }
          },
          {
            "elSymbol": "H",
            "p3d": {
              "x": -0.941,
              "y": -0.535,
              "z": 2.446
            }
          },
          {
            "elSymbol": "H",
            "p3d": {
              "x": -1.5586,
              "y": 0.7335,
              "z": 1.3382
            }
          },
          {
            "elSymbol": "H",
            "p3d": {
              "x": 0.9335,
              "y": 0.7221,
              "z": 1.4011
            }
          },
          {
            "elSymbol": "H",
            "p3d": {
              "x": 0.927,
              "y": -1.0102,
              "z": 0.9001
            }
          }
        ],
        "bonds": [
          {
            "atomIds": [
              0,
              1
            ],
            "bo": "SINGLE"
          },
          {
            "atomIds": [
              0,
              2
            ],
            "bo": "SINGLE"
          },
          {
            "atomIds": [
              0,
              3
            ],
            "bo": "SINGLE"
          },
          {
            "atomIds": [
              0,
              4
            ],
            "bo": "SINGLE"
          },
          {
            "atomIds": [
              1,
              5
            ],
            "bo": "SINGLE"
          },
          {
            "atomIds": [
              1,
              6
            ],
            "bo": "SINGLE"
          }
        ]
      },
      "vertexId": 331492,
      "buildingBlockId": 31,
      "buildingBlockType": "FRAGMENT",
      "isRCV": false,
      "properties": {
        "ATTACHMENT_POINTS": "2#SubRS:1:SINGLE:0.2985%0.3840%-0.6258 "
      },
      "uniquefyingPropertyKeys": [],
      "allowedMutationTypes": [
        "DELETE",
        "EXTEND",
        "CHANGEBRANCH",
        "CHANGELINK",
        "ADDLINK",
        "DELETELINK",
        "DELETECHAIN"
      ],
      "vertexType": "MolecularFragment"
    }
  ],
  "gEdges": [
    {
      "srcAPID": 431850,
      "trgAPID": 431853,
      "bondType": "SINGLE"
    },
    {
      "srcAPID": 431852,
      "trgAPID": 431856,
      "bondType": "SINGLE"
    },
    {
      "srcAPID": 431851,
      "trgAPID": 431857,
      "bondType": "SINGLE"
    },
    {
      "srcAPID": 431854,
      "trgAPID": 431890,
      "bondType": "SINGLE"
    },
    {
      "srcAPID": 431855,
      "trgAPID": 431891,
      "bondType": "SINGLE"
    }
  ],
  "gRings": [],
  "symVertices": [
    {
      "symIds": [
        331465,
        331492
      ]
    }
  ]
}

> <SMILES>
[Pt](C#O)(Cl)([C]1N(C([H])([H])C([H])([H])C(N1C(C([H])([H])[H])([H])[H])([H])[H])C(C([H])([H])[H])([H])[H])Cl

$$$$
