M00004006
  CDK     04222210083D

 49 49  0  0  0  0  0  0  0  0999 V2000
    2.2700    0.3093    0.0622 Pt  0  0  0  0  0  0  0  0  0  0  0  0
    4.1568    0.5396    0.0589 C   0  0  0  0  0  0  0  0  0  0  0  0
    5.2939    0.7015    0.0596 O   0  0  0  0  0  0  0  0  0  0  0  0
    2.3179   -1.7511    0.2457 O   0  0  0  0  0  0  0  0  0  0  0  0
    3.0924   -2.3912   -0.7294 C   0  0  0  0  0  0  0  0  0  0  0  0
    2.8922   -3.4669   -0.6210 H   0  0  0  0  0  0  0  0  0  0  0  0
    4.1574   -2.1890   -0.5580 H   0  0  0  0  0  0  0  0  0  0  0  0
    2.7845   -2.0468   -1.7317 H   0  0  0  0  0  0  0  0  0  0  0  0
    0.2399    0.1553    0.0719 C   0  0  1  0  0  0  0  0  0  0  0  0
   -0.5582    0.0911    1.2050 N   0  0  0  0  0  0  0  0  0  0  0  0
   -1.9223    0.1146    0.7948 C   0  0  0  0  0  0  0  0  0  0  0  0
   -1.9417    0.1747   -0.5936 C   0  0  0  0  0  0  0  0  0  0  0  0
   -0.5888    0.1817   -1.0415 N   0  0  0  0  0  0  0  0  0  0  0  0
   -0.1738    0.2117   -2.5059 C   0  0  0  0  0  0  0  0  0  0  0  0
    1.3496    0.1169   -2.6420 C   0  0  0  0  0  0  0  0  0  0  0  0
   -0.8045   -1.0034   -3.2059 C   0  0  0  0  0  0  0  0  0  0  0  0
   -0.6616    1.5397   -3.1012 C   0  0  0  0  0  0  0  0  0  0  0  0
    1.7630   -0.7980   -2.1684 H   0  0  0  0  0  0  0  0  0  0  0  0
   -0.2322    2.4016   -2.5663 H   0  0  0  0  0  0  0  0  0  0  0  0
   -1.9018   -0.9843   -3.2008 H   0  0  0  0  0  0  0  0  0  0  0  0
   -0.4956   -1.9445   -2.7303 H   0  0  0  0  0  0  0  0  0  0  0  0
   -0.3604    1.6343   -4.1509 H   0  0  0  0  0  0  0  0  0  0  0  0
   -1.7530    1.6512   -3.0629 H   0  0  0  0  0  0  0  0  0  0  0  0
    1.6378    0.0783   -3.7011 H   0  0  0  0  0  0  0  0  0  0  0  0
    1.8679    0.9977   -2.2171 H   0  0  0  0  0  0  0  0  0  0  0  0
   -0.4913   -1.0521   -4.2556 H   0  0  0  0  0  0  0  0  0  0  0  0
   -3.1287    0.2528   -1.4688 C   0  0  0  0  0  0  0  0  0  0  0  0
   -3.1077    1.1647   -2.0946 H   0  0  0  0  0  0  0  0  0  0  0  0
   -4.0612    0.2787   -0.8849 H   0  0  0  0  0  0  0  0  0  0  0  0
   -3.1913   -0.6139   -2.1517 H   0  0  0  0  0  0  0  0  0  0  0  0
   -3.0849    0.0941    1.7053 C   0  0  0  0  0  0  0  0  0  0  0  0
   -3.0666    0.9525    2.4027 H   0  0  0  0  0  0  0  0  0  0  0  0
   -3.1047   -0.8259    2.3184 H   0  0  0  0  0  0  0  0  0  0  0  0
   -4.0349    0.1412    1.1521 H   0  0  0  0  0  0  0  0  0  0  0  0
   -0.1011    0.0045    2.6568 C   0  0  0  0  0  0  0  0  0  0  0  0
   -0.6109    1.2586    3.3821 C   0  0  0  0  0  0  0  0  0  0  0  0
   -0.6773   -1.2871    3.2572 C   0  0  0  0  0  0  0  0  0  0  0  0
    1.4267   -0.0500    2.7410 C   0  0  0  0  0  0  0  0  0  0  0  0
   -1.7055    1.3379    3.3870 H   0  0  0  0  0  0  0  0  0  0  0  0
    1.8463   -0.9362    2.2169 H   0  0  0  0  0  0  0  0  0  0  0  0
   -0.3288   -2.1715    2.7027 H   0  0  0  0  0  0  0  0  0  0  0  0
   -1.7739   -1.3146    3.2583 H   0  0  0  0  0  0  0  0  0  0  0  0
    1.9100    0.8641    2.3468 H   0  0  0  0  0  0  0  0  0  0  0  0
    1.7516   -0.1408    3.7863 H   0  0  0  0  0  0  0  0  0  0  0  0
   -0.2803    1.2651    4.4275 H   0  0  0  0  0  0  0  0  0  0  0  0
   -0.2231    2.1775    2.9177 H   0  0  0  0  0  0  0  0  0  0  0  0
   -0.3494   -1.4122    4.2960 H   0  0  0  0  0  0  0  0  0  0  0  0
    2.0589    2.2721   -0.0132 C   0  0  0  0  0  0  0  0  0  0  0  0
    1.8984    3.4164   -0.0560 N   0  0  0  0  0  0  0  0  0  0  0  0
  2  3  3  0  0  0  0
  1  2  1  0  0  0  0
  5  6  1  0  0  0  0
  5  7  1  0  0  0  0
  5  8  1  0  0  0  0
  4  5  1  0  0  0  0
  1  4  1  0  0  0  0
 10  9  1  0  0  0  0
 11 10  1  0  0  0  0
 12 11  2  0  0  0  0
 12 13  1  0  0  0  0
 13  9  1  0  0  0  0
  1  9  1  0  0  0  0
 14 15  1  0  0  0  0
 14 16  1  0  0  0  0
 14 17  1  0  0  0  0
 15 18  1  0  0  0  0
 17 19  1  0  0  0  0
 16 20  1  0  0  0  0
 16 21  1  0  0  0  0
 17 22  1  0  0  0  0
 17 23  1  0  0  0  0
 15 24  1  0  0  0  0
 15 25  1  0  0  0  0
 16 26  1  0  0  0  0
 13 14  1  0  0  0  0
 28 27  1  0  0  0  0
 29 27  1  0  0  0  0
 30 27  1  0  0  0  0
 12 27  1  0  0  0  0
 32 31  1  0  0  0  0
 33 31  1  0  0  0  0
 34 31  1  0  0  0  0
 11 31  1  0  0  0  0
 35 36  1  0  0  0  0
 35 37  1  0  0  0  0
 35 38  1  0  0  0  0
 36 39  1  0  0  0  0
 38 40  1  0  0  0  0
 37 41  1  0  0  0  0
 37 42  1  0  0  0  0
 38 43  1  0  0  0  0
 38 44  1  0  0  0  0
 36 45  1  0  0  0  0
 36 46  1  0  0  0  0
 37 47  1  0  0  0  0
 10 35  1  0  0  0  0
 48 49  3  0  0  0  0
  1 48  1  0  0  0  0
M  END
> <PM6_ENERGY>
-231.983

> <UID>
HXXUNJANDKHNAP-HYBRHPNNNA-N

> <FITNESS>
1.14857

> <GCODE>
4730

> <GraphENC>
4730 72_1_0,80_65_1,97_19_1,87_66_1,93253_34_1,93252_20_1,92893_20_1,92885_34_1, 72_0_80_0_SINGLE_Xlig:0_Xlig:1,72_2_97_0_SINGLE_scaff:0_MImidazolylidene:1,72_1_87_0_SINGLE_Xlig:0_Xlig:1,97_4_93253_0_SINGLE_LImidazolylideneSubNL:0_SubRL:1,97_3_93252_0_SINGLE_LImidazolylideneSubCS:0_LImidazolylideneSubCS:1,97_2_92893_0_SINGLE_LImidazolylideneSubCS:0_LImidazolylideneSubCS:1,97_1_92885_0_SINGLE_LImidazolylideneSubNL:0_SubRL:1, SymmetricSet [symIds=[93253, 92885]] SymmetricSet [symIds=[93252, 92893]] 

> <GraphJson>
{
  "graphId": 4730,
  "gVertices": [
    {
      "lstAPs": [
        {
          "id": 122665,
          "atomPositionNumber": 0,
          "atomPositionNumberInMol": 0,
          "apClass": {
            "rule": "Xlig",
            "subClass": 0,
            "bndTyp": "SINGLE"
          },
          "dirVec": {
            "x": -2.3339,
            "y": -0.0087,
            "z": 0.8172
          }
        },
        {
          "id": 122666,
          "atomPositionNumber": 0,
          "atomPositionNumberInMol": 0,
          "apClass": {
            "rule": "Xlig",
            "subClass": 0,
            "bndTyp": "SINGLE"
          },
          "dirVec": {
            "x": 2.336,
            "y": -5.0E-4,
            "z": 0.829
          }
        },
        {
          "id": 122667,
          "atomPositionNumber": 0,
          "atomPositionNumberInMol": 0,
          "apClass": {
            "rule": "scaff",
            "subClass": 0,
            "bndTyp": "SINGLE"
          },
          "dirVec": {
            "x": -0.0095,
            "y": 0.0046,
            "z": -1.7113
          }
        }
      ],
      "lstSymAPs": [
        {
          "symIds": [
            0,
            1
          ]
        }
      ],
      "mol": {
        "atoms": [
          {
            "elSymbol": "Pt",
            "p3d": {
              "x": -0.0098,
              "y": 0.0049,
              "z": 0.6289
            }
          },
          {
            "elSymbol": "C",
            "p3d": {
              "x": -6.0E-4,
              "y": 0.0016,
              "z": 2.5609
            }
          },
          {
            "elSymbol": "O",
            "p3d": {
              "x": 0.0025,
              "y": -0.0041,
              "z": 3.6974
            }
          },
          {
            "elSymbol": "Du",
            "p3d": {
              "x": -0.007,
              "y": 1.0013,
              "z": 0.6372
            }
          },
          {
            "elSymbol": "Du",
            "p3d": {
              "x": -0.0014,
              "y": 0.9902,
              "z": 2.5698
            }
          }
        ],
        "bonds": [
          {
            "atomIds": [
              1,
              2
            ],
            "bo": "TRIPLE"
          },
          {
            "atomIds": [
              0,
              1
            ],
            "bo": "SINGLE"
          },
          {
            "atomIds": [
              3,
              0
            ],
            "bo": "SINGLE"
          },
          {
            "atomIds": [
              4,
              1
            ],
            "bo": "SINGLE"
          }
        ]
      },
      "vertexId": 72,
      "buildingBlockId": 0,
      "buildingBlockType": "SCAFFOLD",
      "isRCV": false,
      "properties": {
        "ATTACHMENT_POINTS": "1#Xlig:0:SINGLE:-2.3339%-0.0087%0.8172,Xlig:0:SINGLE:2.3360%-0.0005%0.8290,scaff:0:SINGLE:-0.0095%0.0046%-1.7113 "
      },
      "uniquefyingPropertyKeys": [],
      "allowedMutationTypes": [
        "DELETE",
        "EXTEND",
        "CHANGEBRANCH",
        "CHANGELINK",
        "ADDLINK",
        "DELETELINK",
        "DELETECHAIN"
      ],
      "vertexType": "MolecularFragment"
    },
    {
      "lstAPs": [
        {
          "id": 122669,
          "atomPositionNumber": 0,
          "atomPositionNumberInMol": 5,
          "apClass": {
            "rule": "Xlig",
            "subClass": 1,
            "bndTyp": "SINGLE"
          },
          "dirVec": {
            "x": -0.1753,
            "y": 0.0948,
            "z": -0.4464
          }
        }
      ],
      "lstSymAPs": [],
      "mol": {
        "atoms": [
          {
            "elSymbol": "O",
            "p3d": {
              "x": -0.3534,
              "y": 2.1044,
              "z": -0.7339
            }
          },
          {
            "elSymbol": "C",
            "p3d": {
              "x": -0.5345,
              "y": 2.7646,
              "z": 0.4801
            }
          },
          {
            "elSymbol": "H",
            "p3d": {
              "x": -0.3728,
              "y": 3.8337,
              "z": 0.2724
            }
          },
          {
            "elSymbol": "H",
            "p3d": {
              "x": 0.1816,
              "y": 2.4161,
              "z": 1.2384
            }
          },
          {
            "elSymbol": "H",
            "p3d": {
              "x": -1.553,
              "y": 2.6149,
              "z": 0.8489
            }
          }
        ],
        "bonds": [
          {
            "atomIds": [
              1,
              2
            ],
            "bo": "SINGLE"
          },
          {
            "atomIds": [
              1,
              3
            ],
            "bo": "SINGLE"
          },
          {
            "atomIds": [
              1,
              4
            ],
            "bo": "SINGLE"
          },
          {
            "atomIds": [
              0,
              1
            ],
            "bo": "SINGLE"
          }
        ]
      },
      "vertexId": 80,
      "buildingBlockId": 64,
      "buildingBlockType": "FRAGMENT",
      "isRCV": false,
      "properties": {
        "ATTACHMENT_POINTS": "1#Xlig:1:SINGLE:-0.1753%0.0948%-0.4464 "
      },
      "uniquefyingPropertyKeys": [],
      "allowedMutationTypes": [
        "DELETE",
        "EXTEND",
        "CHANGEBRANCH",
        "CHANGELINK",
        "ADDLINK",
        "DELETELINK",
        "DELETECHAIN"
      ],
      "vertexType": "MolecularFragment"
    },
    {
      "lstAPs": [
        {
          "id": 122671,
          "atomPositionNumber": 0,
          "atomPositionNumberInMol": 10,
          "apClass": {
            "rule": "MImidazolylidene",
            "subClass": 1,
            "bndTyp": "SINGLE"
          },
          "dirVec": {
            "x": 6.9056,
            "y": 0.097,
            "z": 12.1004
          }
        },
        {
          "id": 122672,
          "atomPositionNumber": 1,
          "atomPositionNumberInMol": 11,
          "apClass": {
            "rule": "LImidazolylideneSubNL",
            "subClass": 0,
            "bndTyp": "SINGLE"
          },
          "dirVec": {
            "x": 4.1123,
            "y": 2.1609,
            "z": 11.1322
          }
        },
        {
          "id": 122673,
          "atomPositionNumber": 2,
          "atomPositionNumberInMol": 12,
          "apClass": {
            "rule": "LImidazolylideneSubCS",
            "subClass": 0,
            "bndTyp": "SINGLE"
          },
          "dirVec": {
            "x": 2.203,
            "y": 3.3086,
            "z": 13.3341
          }
        },
        {
          "id": 122674,
          "atomPositionNumber": 3,
          "atomPositionNumberInMol": 13,
          "apClass": {
            "rule": "LImidazolylideneSubCS",
            "subClass": 0,
            "bndTyp": "SINGLE"
          },
          "dirVec": {
            "x": 3.4334,
            "y": 2.3948,
            "z": 16.1586
          }
        },
        {
          "id": 122675,
          "atomPositionNumber": 4,
          "atomPositionNumberInMol": 14,
          "apClass": {
            "rule": "LImidazolylideneSubNL",
            "subClass": 0,
            "bndTyp": "SINGLE"
          },
          "dirVec": {
            "x": 5.9067,
            "y": 0.5846,
            "z": 15.5163
          }
        }
      ],
      "lstSymAPs": [
        {
          "symIds": [
            1,
            4
          ]
        },
        {
          "symIds": [
            2,
            3
          ]
        }
      ],
      "mol": {
        "atoms": [
          {
            "elSymbol": "C",
            "p3d": {
              "x": 5.2812,
              "y": 1.2018,
              "z": 13.1656
            }
          },
          {
            "elSymbol": "N",
            "p3d": {
              "x": 4.2675,
              "y": 1.9426,
              "z": 12.5989
            }
          },
          {
            "elSymbol": "C",
            "p3d": {
              "x": 3.4407,
              "y": 2.4761,
              "z": 13.582
            }
          },
          {
            "elSymbol": "C",
            "p3d": {
              "x": 3.9357,
              "y": 2.0507,
              "z": 14.777
            }
          },
          {
            "elSymbol": "N",
            "p3d": {
              "x": 5.0694,
              "y": 1.2634,
              "z": 14.5115
            }
          }
        ],
        "bonds": [
          {
            "atomIds": [
              1,
              0
            ],
            "bo": "SINGLE"
          },
          {
            "atomIds": [
              2,
              1
            ],
            "bo": "SINGLE"
          },
          {
            "atomIds": [
              3,
              2
            ],
            "bo": "DOUBLE"
          },
          {
            "atomIds": [
              3,
              4
            ],
            "bo": "SINGLE"
          },
          {
            "atomIds": [
              4,
              0
            ],
            "bo": "SINGLE"
          }
        ]
      },
      "vertexId": 97,
      "buildingBlockId": 18,
      "buildingBlockType": "FRAGMENT",
      "isRCV": false,
      "properties": {
        "ATTACHMENT_POINTS": "1#MImidazolylidene:1:SINGLE:6.9056%0.0970%12.1004 2#LImidazolylideneSubNL:0:SINGLE:4.1123%2.1609%11.1322 3#LImidazolylideneSubCS:0:SINGLE:2.2030%3.3086%13.3341 4#LImidazolylideneSubCS:0:SINGLE:3.4334%2.3948%16.1586 5#LImidazolylideneSubNL:0:SINGLE:5.9067%0.5846%15.5163 "
      },
      "uniquefyingPropertyKeys": [],
      "allowedMutationTypes": [
        "DELETE",
        "EXTEND",
        "CHANGEBRANCH",
        "CHANGELINK",
        "ADDLINK",
        "DELETELINK",
        "DELETECHAIN"
      ],
      "vertexType": "MolecularFragment"
    },
    {
      "lstAPs": [
        {
          "id": 122676,
          "atomPositionNumber": 0,
          "atomPositionNumberInMol": 49,
          "apClass": {
            "rule": "Xlig",
            "subClass": 1,
            "bndTyp": "SINGLE"
          },
          "dirVec": {
            "x": 0.0192,
            "y": -0.0048,
            "z": -0.5645
          }
        }
      ],
      "lstSymAPs": [],
      "mol": {
        "atoms": [
          {
            "elSymbol": "C",
            "p3d": {
              "x": -1.967,
              "y": -0.0075,
              "z": -0.4937
            }
          },
          {
            "elSymbol": "N",
            "p3d": {
              "x": -3.1263,
              "y": -0.0054,
              "z": -0.4354
            }
          },
          {
            "elSymbol": "Du",
            "p3d": {
              "x": -1.9744,
              "y": 0.9926,
              "z": -0.5036
            }
          }
        ],
        "bonds": [
          {
            "atomIds": [
              0,
              1
            ],
            "bo": "TRIPLE"
          },
          {
            "atomIds": [
              2,
              0
            ],
            "bo": "SINGLE"
          }
        ]
      },
      "vertexId": 87,
      "buildingBlockId": 65,
      "buildingBlockType": "FRAGMENT",
      "isRCV": false,
      "properties": {
        "ATTACHMENT_POINTS": "1#Xlig:1:SINGLE:0.0192%-0.0048%-0.5645 "
      },
      "uniquefyingPropertyKeys": [],
      "allowedMutationTypes": [
        "DELETE",
        "EXTEND",
        "CHANGEBRANCH",
        "CHANGELINK",
        "ADDLINK",
        "DELETELINK",
        "DELETECHAIN"
      ],
      "vertexType": "MolecularFragment"
    },
    {
      "lstAPs": [
        {
          "id": 122720,
          "atomPositionNumber": 0,
          "atomPositionNumberInMol": 15,
          "apClass": {
            "rule": "SubRL",
            "subClass": 1,
            "bndTyp": "SINGLE"
          },
          "dirVec": {
            "x": 0.2857,
            "y": 0.39,
            "z": -0.6426
          }
        }
      ],
      "lstSymAPs": [],
      "mol": {
        "atoms": [
          {
            "elSymbol": "C",
            "p3d": {
              "x": 0.3842,
              "y": -0.0523,
              "z": 0.8329
            }
          },
          {
            "elSymbol": "C",
            "p3d": {
              "x": -0.6709,
              "y": 0.6882,
              "z": 1.6615
            }
          },
          {
            "elSymbol": "C",
            "p3d": {
              "x": 0.1554,
              "y": -1.558,
              "z": 0.9277
            }
          },
          {
            "elSymbol": "C",
            "p3d": {
              "x": 1.7886,
              "y": 0.2826,
              "z": 1.3761
            }
          },
          {
            "elSymbol": "H",
            "p3d": {
              "x": -0.5899,
              "y": 0.3841,
              "z": 2.6969
            }
          },
          {
            "elSymbol": "H",
            "p3d": {
              "x": 1.8617,
              "y": -0.0274,
              "z": 2.4067
            }
          },
          {
            "elSymbol": "H",
            "p3d": {
              "x": 0.2289,
              "y": -1.8635,
              "z": 1.9737
            }
          },
          {
            "elSymbol": "H",
            "p3d": {
              "x": 0.8983,
              "y": -2.0943,
              "z": 0.3332
            }
          },
          {
            "elSymbol": "H",
            "p3d": {
              "x": 2.5395,
              "y": -0.2409,
              "z": 0.7751
            }
          },
          {
            "elSymbol": "H",
            "p3d": {
              "x": 1.9553,
              "y": 1.3543,
              "z": 1.294
            }
          },
          {
            "elSymbol": "H",
            "p3d": {
              "x": -0.4937,
              "y": 1.7723,
              "z": 1.5856
            }
          },
          {
            "elSymbol": "H",
            "p3d": {
              "x": -1.6541,
              "y": 0.4601,
              "z": 1.2602
            }
          },
          {
            "elSymbol": "H",
            "p3d": {
              "x": -0.8514,
              "y": -1.792,
              "z": 0.5518
            }
          }
        ],
        "bonds": [
          {
            "atomIds": [
              0,
              1
            ],
            "bo": "SINGLE"
          },
          {
            "atomIds": [
              0,
              2
            ],
            "bo": "SINGLE"
          },
          {
            "atomIds": [
              0,
              3
            ],
            "bo": "SINGLE"
          },
          {
            "atomIds": [
              1,
              4
            ],
            "bo": "SINGLE"
          },
          {
            "atomIds": [
              3,
              5
            ],
            "bo": "SINGLE"
          },
          {
            "atomIds": [
              2,
              6
            ],
            "bo": "SINGLE"
          },
          {
            "atomIds": [
              2,
              7
            ],
            "bo": "SINGLE"
          },
          {
            "atomIds": [
              3,
              8
            ],
            "bo": "SINGLE"
          },
          {
            "atomIds": [
              3,
              9
            ],
            "bo": "SINGLE"
          },
          {
            "atomIds": [
              1,
              10
            ],
            "bo": "SINGLE"
          },
          {
            "atomIds": [
              1,
              11
            ],
            "bo": "SINGLE"
          },
          {
            "atomIds": [
              2,
              12
            ],
            "bo": "SINGLE"
          }
        ]
      },
      "vertexId": 93253,
      "buildingBlockId": 33,
      "buildingBlockType": "FRAGMENT",
      "isRCV": false,
      "properties": {
        "ATTACHMENT_POINTS": "1#SubRL:1:SINGLE:0.2857%0.3900%-0.6426 "
      },
      "uniquefyingPropertyKeys": [],
      "allowedMutationTypes": [
        "DELETE",
        "EXTEND",
        "CHANGEBRANCH",
        "CHANGELINK",
        "ADDLINK",
        "DELETELINK",
        "DELETECHAIN"
      ],
      "vertexType": "MolecularFragment"
    },
    {
      "lstAPs": [
        {
          "id": 122721,
          "atomPositionNumber": 0,
          "atomPositionNumberInMol": 28,
          "apClass": {
            "rule": "LImidazolylideneSubCS",
            "subClass": 1,
            "bndTyp": "SINGLE"
          },
          "dirVec": {
            "x": -0.1277,
            "y": 4.1125,
            "z": 2.0278
          }
        }
      ],
      "lstSymAPs": [],
      "mol": {
        "atoms": [
          {
            "elSymbol": "C",
            "p3d": {
              "x": -1.5227,
              "y": 4.6114,
              "z": 1.6409
            }
          },
          {
            "elSymbol": "H",
            "p3d": {
              "x": -1.4627,
              "y": 5.218,
              "z": 0.7489
            }
          },
          {
            "elSymbol": "H",
            "p3d": {
              "x": -1.9308,
              "y": 5.2054,
              "z": 2.4549
            }
          },
          {
            "elSymbol": "H",
            "p3d": {
              "x": -2.1725,
              "y": 3.7579,
              "z": 1.4674
            }
          }
        ],
        "bonds": [
          {
            "atomIds": [
              1,
              0
            ],
            "bo": "SINGLE"
          },
          {
            "atomIds": [
              2,
              0
            ],
            "bo": "SINGLE"
          },
          {
            "atomIds": [
              3,
              0
            ],
            "bo": "SINGLE"
          }
        ]
      },
      "vertexId": 93252,
      "buildingBlockId": 19,
      "buildingBlockType": "FRAGMENT",
      "isRCV": false,
      "properties": {
        "ATTACHMENT_POINTS": "1#LImidazolylideneSubCS:1:SINGLE:-0.1277%4.1125%2.0278 "
      },
      "uniquefyingPropertyKeys": [],
      "allowedMutationTypes": [
        "DELETE",
        "EXTEND",
        "CHANGEBRANCH",
        "CHANGELINK",
        "ADDLINK",
        "DELETELINK",
        "DELETECHAIN"
      ],
      "vertexType": "MolecularFragment"
    },
    {
      "lstAPs": [
        {
          "id": 122722,
          "atomPositionNumber": 0,
          "atomPositionNumberInMol": 32,
          "apClass": {
            "rule": "LImidazolylideneSubCS",
            "subClass": 1,
            "bndTyp": "SINGLE"
          },
          "dirVec": {
            "x": -0.1277,
            "y": 4.1125,
            "z": 2.0278
          }
        }
      ],
      "lstSymAPs": [],
      "mol": {
        "atoms": [
          {
            "elSymbol": "C",
            "p3d": {
              "x": -1.5227,
              "y": 4.6114,
              "z": 1.6409
            }
          },
          {
            "elSymbol": "H",
            "p3d": {
              "x": -1.4627,
              "y": 5.218,
              "z": 0.7489
            }
          },
          {
            "elSymbol": "H",
            "p3d": {
              "x": -1.9308,
              "y": 5.2054,
              "z": 2.4549
            }
          },
          {
            "elSymbol": "H",
            "p3d": {
              "x": -2.1725,
              "y": 3.7579,
              "z": 1.4674
            }
          }
        ],
        "bonds": [
          {
            "atomIds": [
              1,
              0
            ],
            "bo": "SINGLE"
          },
          {
            "atomIds": [
              2,
              0
            ],
            "bo": "SINGLE"
          },
          {
            "atomIds": [
              3,
              0
            ],
            "bo": "SINGLE"
          }
        ]
      },
      "vertexId": 92893,
      "buildingBlockId": 19,
      "buildingBlockType": "FRAGMENT",
      "isRCV": false,
      "properties": {
        "ATTACHMENT_POINTS": "1#LImidazolylideneSubCS:1:SINGLE:-0.1277%4.1125%2.0278 "
      },
      "uniquefyingPropertyKeys": [],
      "allowedMutationTypes": [
        "DELETE",
        "EXTEND",
        "CHANGEBRANCH",
        "CHANGELINK",
        "ADDLINK",
        "DELETELINK",
        "DELETECHAIN"
      ],
      "vertexType": "MolecularFragment"
    },
    {
      "lstAPs": [
        {
          "id": 122723,
          "atomPositionNumber": 0,
          "atomPositionNumberInMol": 36,
          "apClass": {
            "rule": "SubRL",
            "subClass": 1,
            "bndTyp": "SINGLE"
          },
          "dirVec": {
            "x": 0.2857,
            "y": 0.39,
            "z": -0.6426
          }
        }
      ],
      "lstSymAPs": [],
      "mol": {
        "atoms": [
          {
            "elSymbol": "C",
            "p3d": {
              "x": 0.3842,
              "y": -0.0523,
              "z": 0.8329
            }
          },
          {
            "elSymbol": "C",
            "p3d": {
              "x": -0.6709,
              "y": 0.6882,
              "z": 1.6615
            }
          },
          {
            "elSymbol": "C",
            "p3d": {
              "x": 0.1554,
              "y": -1.558,
              "z": 0.9277
            }
          },
          {
            "elSymbol": "C",
            "p3d": {
              "x": 1.7886,
              "y": 0.2826,
              "z": 1.3761
            }
          },
          {
            "elSymbol": "H",
            "p3d": {
              "x": -0.5899,
              "y": 0.3841,
              "z": 2.6969
            }
          },
          {
            "elSymbol": "H",
            "p3d": {
              "x": 1.8617,
              "y": -0.0274,
              "z": 2.4067
            }
          },
          {
            "elSymbol": "H",
            "p3d": {
              "x": 0.2289,
              "y": -1.8635,
              "z": 1.9737
            }
          },
          {
            "elSymbol": "H",
            "p3d": {
              "x": 0.8983,
              "y": -2.0943,
              "z": 0.3332
            }
          },
          {
            "elSymbol": "H",
            "p3d": {
              "x": 2.5395,
              "y": -0.2409,
              "z": 0.7751
            }
          },
          {
            "elSymbol": "H",
            "p3d": {
              "x": 1.9553,
              "y": 1.3543,
              "z": 1.294
            }
          },
          {
            "elSymbol": "H",
            "p3d": {
              "x": -0.4937,
              "y": 1.7723,
              "z": 1.5856
            }
          },
          {
            "elSymbol": "H",
            "p3d": {
              "x": -1.6541,
              "y": 0.4601,
              "z": 1.2602
            }
          },
          {
            "elSymbol": "H",
            "p3d": {
              "x": -0.8514,
              "y": -1.792,
              "z": 0.5518
            }
          }
        ],
        "bonds": [
          {
            "atomIds": [
              0,
              1
            ],
            "bo": "SINGLE"
          },
          {
            "atomIds": [
              0,
              2
            ],
            "bo": "SINGLE"
          },
          {
            "atomIds": [
              0,
              3
            ],
            "bo": "SINGLE"
          },
          {
            "atomIds": [
              1,
              4
            ],
            "bo": "SINGLE"
          },
          {
            "atomIds": [
              3,
              5
            ],
            "bo": "SINGLE"
          },
          {
            "atomIds": [
              2,
              6
            ],
            "bo": "SINGLE"
          },
          {
            "atomIds": [
              2,
              7
            ],
            "bo": "SINGLE"
          },
          {
            "atomIds": [
              3,
              8
            ],
            "bo": "SINGLE"
          },
          {
            "atomIds": [
              3,
              9
            ],
            "bo": "SINGLE"
          },
          {
            "atomIds": [
              1,
              10
            ],
            "bo": "SINGLE"
          },
          {
            "atomIds": [
              1,
              11
            ],
            "bo": "SINGLE"
          },
          {
            "atomIds": [
              2,
              12
            ],
            "bo": "SINGLE"
          }
        ]
      },
      "vertexId": 92885,
      "buildingBlockId": 33,
      "buildingBlockType": "FRAGMENT",
      "isRCV": false,
      "properties": {
        "ATTACHMENT_POINTS": "1#SubRL:1:SINGLE:0.2857%0.3900%-0.6426 "
      },
      "uniquefyingPropertyKeys": [],
      "allowedMutationTypes": [
        "DELETE",
        "EXTEND",
        "CHANGEBRANCH",
        "CHANGELINK",
        "ADDLINK",
        "DELETELINK",
        "DELETECHAIN"
      ],
      "vertexType": "MolecularFragment"
    }
  ],
  "gEdges": [
    {
      "srcAPID": 122665,
      "trgAPID": 122669,
      "bondType": "SINGLE"
    },
    {
      "srcAPID": 122667,
      "trgAPID": 122671,
      "bondType": "SINGLE"
    },
    {
      "srcAPID": 122666,
      "trgAPID": 122676,
      "bondType": "SINGLE"
    },
    {
      "srcAPID": 122675,
      "trgAPID": 122720,
      "bondType": "SINGLE"
    },
    {
      "srcAPID": 122674,
      "trgAPID": 122721,
      "bondType": "SINGLE"
    },
    {
      "srcAPID": 122673,
      "trgAPID": 122722,
      "bondType": "SINGLE"
    },
    {
      "srcAPID": 122672,
      "trgAPID": 122723,
      "bondType": "SINGLE"
    }
  ],
  "gRings": [],
  "symVertices": [
    {
      "symIds": [
        93253,
        92885
      ]
    },
    {
      "symIds": [
        93252,
        92893
      ]
    }
  ]
}

> <SMILES>
[Pt](C#O)(OC([H])([H])[H])([C]1N(C(=C(N1C(C([H])([H])[H])(C([H])([H])[H])C([H])([H])[H])C([H])([H])[H])C([H])([H])[H])C(C([H])([H])[H])(C([H])([H])[H])C([H])([H])[H])C#N

$$$$
