M00004201
  CDK     04222210133D

 54 58  0  0  0  0  0  0  0  0999 V2000
   -2.6992   -0.5015    0.6903 Pt  0  0  0  0  0  0  0  0  0  0  0  0
   -4.6230   -0.7236    0.8429 C   0  0  0  0  0  0  0  0  0  0  0  0
   -5.7525   -0.8705    0.9314 O   0  0  0  0  0  0  0  0  0  0  0  0
   -2.8607    1.5422    0.9474 O   0  0  0  0  0  0  0  0  0  0  0  0
   -3.2892    1.8607    2.2478 C   0  0  0  0  0  0  0  0  0  0  0  0
   -3.1911    2.9524    2.3394 H   0  0  0  0  0  0  0  0  0  0  0  0
   -2.6555    1.3602    2.9913 H   0  0  0  0  0  0  0  0  0  0  0  0
   -4.3406    1.5718    2.3735 H   0  0  0  0  0  0  0  0  0  0  0  0
   -0.4275   -0.3196    0.5556 P   0  0  0  0  0  0  0  0  0  0  0  0
    0.4132   -1.8768    1.0863 C   0  0  0  0  0  0  0  0  0  0  0  0
    1.5682   -4.2322    2.0089 C   0  0  0  0  0  0  0  0  0  0  0  0
    1.4702   -2.4413    0.3751 C   0  0  0  0  0  0  0  0  0  0  0  0
   -0.0922   -2.4822    2.2426 C   0  0  0  0  0  0  0  0  0  0  0  0
    0.4967   -3.6620    2.7068 C   0  0  0  0  0  0  0  0  0  0  0  0
    2.0519   -3.6259    0.8466 C   0  0  0  0  0  0  0  0  0  0  0  0
    1.8573   -2.0000   -0.5475 H   0  0  0  0  0  0  0  0  0  0  0  0
   -0.9503   -2.0720    2.7851 H   0  0  0  0  0  0  0  0  0  0  0  0
    0.1082   -4.1490    3.6007 H   0  0  0  0  0  0  0  0  0  0  0  0
    2.8750   -4.0801    0.2959 H   0  0  0  0  0  0  0  0  0  0  0  0
    2.0180   -5.1587    2.3678 H   0  0  0  0  0  0  0  0  0  0  0  0
    0.0920    0.0711   -1.0735 N   0  0  0  0  0  0  0  0  0  0  0  0
   -0.7312    0.0626   -2.2512 C   0  0  0  0  0  0  0  0  0  0  0  0
   -2.0898   -0.2261   -2.4032 C   0  0  0  0  0  0  0  0  0  0  0  0
   -2.7435   -0.5018   -1.5666 H   0  0  0  0  0  0  0  0  0  0  0  0
   -2.6217   -0.1554   -3.6942 C   0  0  0  0  0  0  0  0  0  0  0  0
   -3.6791   -0.3795   -3.8433 H   0  0  0  0  0  0  0  0  0  0  0  0
   -1.8336    0.1953   -4.8019 C   0  0  0  0  0  0  0  0  0  0  0  0
   -2.2893    0.2374   -5.7897 H   0  0  0  0  0  0  0  0  0  0  0  0
   -0.4773    0.4905   -4.6510 C   0  0  0  0  0  0  0  0  0  0  0  0
    0.1349    0.7654   -5.5075 H   0  0  0  0  0  0  0  0  0  0  0  0
    0.0827    0.4274   -3.3762 C   0  0  0  0  0  0  0  0  0  0  0  0
    1.4286    0.6741   -2.8855 C   0  0  0  0  0  0  0  0  0  0  0  0
    2.6073    1.0523   -3.5239 C   0  0  0  0  0  0  0  0  0  0  0  0
    2.6215    1.2179   -4.5996 H   0  0  0  0  0  0  0  0  0  0  0  0
    3.7640    1.2142   -2.7567 C   0  0  0  0  0  0  0  0  0  0  0  0
    4.6940    1.5096   -3.2392 H   0  0  0  0  0  0  0  0  0  0  0  0
    3.7425    1.0041   -1.3699 C   0  0  0  0  0  0  0  0  0  0  0  0
    4.6593    1.1431   -0.7958 H   0  0  0  0  0  0  0  0  0  0  0  0
    2.5754    0.6230   -0.7011 C   0  0  0  0  0  0  0  0  0  0  0  0
    2.5944    0.4824    0.3758 H   0  0  0  0  0  0  0  0  0  0  0  0
    1.4175    0.4578   -1.4654 C   0  0  0  0  0  0  0  0  0  0  0  0
    0.2539    1.0248    1.6222 C   0  0  0  0  0  0  0  0  0  0  0  0
    1.2616    3.1090    3.1636 C   0  0  0  0  0  0  0  0  0  0  0  0
    1.1944    0.7473    2.6194 C   0  0  0  0  0  0  0  0  0  0  0  0
   -0.1969    2.3258    1.3914 C   0  0  0  0  0  0  0  0  0  0  0  0
    0.3183    3.3727    2.1690 C   0  0  0  0  0  0  0  0  0  0  0  0
    1.6963    1.7965    3.3931 C   0  0  0  0  0  0  0  0  0  0  0  0
    1.5501   -0.2677    2.8154 H   0  0  0  0  0  0  0  0  0  0  0  0
   -0.9689    2.5503    0.6362 H   0  0  0  0  0  0  0  0  0  0  0  0
   -0.0238    4.3922    1.9935 H   0  0  0  0  0  0  0  0  0  0  0  0
    2.4269    1.5958    4.1748 H   0  0  0  0  0  0  0  0  0  0  0  0
    1.6613    3.9249    3.7666 H   0  0  0  0  0  0  0  0  0  0  0  0
   -2.5722   -2.4465    0.3460 C   0  0  0  0  0  0  0  0  0  0  0  0
   -2.5266   -3.5825    0.1403 N   0  0  0  0  0  0  0  0  0  0  0  0
  2  3  3  0  0  0  0
  1  2  1  0  0  0  0
  5  6  1  0  0  0  0
  5  7  1  0  0  0  0
  5  8  1  0  0  0  0
  4  5  1  0  0  0  0
  1  4  1  0  0  0  0
  1  9  1  0  0  0  0
 10 13  1  0  0  0  0
 13 14  2  0  0  0  0
 11 14  1  0  0  0  0
 11 15  2  0  0  0  0
 12 15  1  0  0  0  0
 10 12  2  0  0  0  0
 14 18  1  0  0  0  0
 15 19  1  0  0  0  0
 11 20  1  0  0  0  0
 12 16  1  0  0  0  0
 13 17  1  0  0  0  0
  9 10  1  0  0  0  0
 22 21  1  0  0  0  0
 23 22  1  0  0  0  0
 24 23  1  0  0  0  0
 25 23  2  0  0  0  0
 26 25  1  0  0  0  0
 27 25  1  0  0  0  0
 28 27  1  0  0  0  0
 29 27  2  0  0  0  0
 30 29  1  0  0  0  0
 31 22  2  0  0  0  0
 31 29  1  0  0  0  0
 32 31  1  0  0  0  0
 32 33  1  0  0  0  0
 32 41  2  0  0  0  0
 34 33  1  0  0  0  0
 35 33  2  0  0  0  0
 36 35  1  0  0  0  0
 37 35  1  0  0  0  0
 38 37  1  0  0  0  0
 39 37  2  0  0  0  0
 39 41  1  0  0  0  0
 40 39  1  0  0  0  0
 41 21  1  0  0  0  0
  9 21  1  0  0  0  0
 42 45  1  0  0  0  0
 45 46  2  0  0  0  0
 43 46  1  0  0  0  0
 43 47  2  0  0  0  0
 44 47  1  0  0  0  0
 42 44  2  0  0  0  0
 46 50  1  0  0  0  0
 47 51  1  0  0  0  0
 43 52  1  0  0  0  0
 44 48  1  0  0  0  0
 45 49  1  0  0  0  0
  9 42  1  0  0  0  0
 53 54  3  0  0  0  0
  1 53  1  0  0  0  0
M  END
> <PM6_ENERGY>
320.778

> <UID>
WLOPIBCHDRKVKD-BRZXFXLINA-N

> <FITNESS>
1.14245

> <GCODE>
4940

> <GraphENC>
4940 72_1_0,80_65_1,101_4_1,87_66_1,97192_36_1,96536_11_1,96547_36_1, 72_0_80_0_SINGLE_Xlig:0_Xlig:1,72_2_101_3_SINGLE_scaff:0_MMonoAminoPhosphine:1,72_1_87_0_SINGLE_Xlig:0_Xlig:1,101_2_97192_0_SINGLE_LMonoAminoPhosphineSubR:0_SubArS:1,101_0_96536_0_SINGLE_LMonoAminoPhosphineN:0_LAminoPhosphineCycloN:1,101_1_96547_0_SINGLE_LMonoAminoPhosphineSubR:0_SubArS:1, SymmetricSet [symIds=[97192, 96547]] 

> <GraphJson>
{
  "graphId": 4940,
  "gVertices": [
    {
      "lstAPs": [
        {
          "id": 127873,
          "atomPositionNumber": 0,
          "atomPositionNumberInMol": 0,
          "apClass": {
            "rule": "Xlig",
            "subClass": 0,
            "bndTyp": "SINGLE"
          },
          "dirVec": {
            "x": -2.3339,
            "y": -0.0087,
            "z": 0.8172
          }
        },
        {
          "id": 127874,
          "atomPositionNumber": 0,
          "atomPositionNumberInMol": 0,
          "apClass": {
            "rule": "Xlig",
            "subClass": 0,
            "bndTyp": "SINGLE"
          },
          "dirVec": {
            "x": 2.336,
            "y": -5.0E-4,
            "z": 0.829
          }
        },
        {
          "id": 127875,
          "atomPositionNumber": 0,
          "atomPositionNumberInMol": 0,
          "apClass": {
            "rule": "scaff",
            "subClass": 0,
            "bndTyp": "SINGLE"
          },
          "dirVec": {
            "x": -0.0095,
            "y": 0.0046,
            "z": -1.7113
          }
        }
      ],
      "lstSymAPs": [
        {
          "symIds": [
            0,
            1
          ]
        }
      ],
      "mol": {
        "atoms": [
          {
            "elSymbol": "Pt",
            "p3d": {
              "x": -0.0098,
              "y": 0.0049,
              "z": 0.6289
            }
          },
          {
            "elSymbol": "C",
            "p3d": {
              "x": -6.0E-4,
              "y": 0.0016,
              "z": 2.5609
            }
          },
          {
            "elSymbol": "O",
            "p3d": {
              "x": 0.0025,
              "y": -0.0041,
              "z": 3.6974
            }
          },
          {
            "elSymbol": "Du",
            "p3d": {
              "x": -0.007,
              "y": 1.0013,
              "z": 0.6372
            }
          },
          {
            "elSymbol": "Du",
            "p3d": {
              "x": -0.0014,
              "y": 0.9902,
              "z": 2.5698
            }
          }
        ],
        "bonds": [
          {
            "atomIds": [
              1,
              2
            ],
            "bo": "TRIPLE"
          },
          {
            "atomIds": [
              0,
              1
            ],
            "bo": "SINGLE"
          },
          {
            "atomIds": [
              3,
              0
            ],
            "bo": "SINGLE"
          },
          {
            "atomIds": [
              4,
              1
            ],
            "bo": "SINGLE"
          }
        ]
      },
      "vertexId": 72,
      "buildingBlockId": 0,
      "buildingBlockType": "SCAFFOLD",
      "isRCV": false,
      "properties": {
        "ATTACHMENT_POINTS": "1#Xlig:0:SINGLE:-2.3339%-0.0087%0.8172,Xlig:0:SINGLE:2.3360%-0.0005%0.8290,scaff:0:SINGLE:-0.0095%0.0046%-1.7113 "
      },
      "uniquefyingPropertyKeys": [],
      "allowedMutationTypes": [
        "DELETE",
        "EXTEND",
        "CHANGEBRANCH",
        "CHANGELINK",
        "ADDLINK",
        "DELETELINK",
        "DELETECHAIN"
      ],
      "vertexType": "MolecularFragment"
    },
    {
      "lstAPs": [
        {
          "id": 127876,
          "atomPositionNumber": 0,
          "atomPositionNumberInMol": 5,
          "apClass": {
            "rule": "Xlig",
            "subClass": 1,
            "bndTyp": "SINGLE"
          },
          "dirVec": {
            "x": -0.1753,
            "y": 0.0948,
            "z": -0.4464
          }
        }
      ],
      "lstSymAPs": [],
      "mol": {
        "atoms": [
          {
            "elSymbol": "O",
            "p3d": {
              "x": -0.3534,
              "y": 2.1044,
              "z": -0.7339
            }
          },
          {
            "elSymbol": "C",
            "p3d": {
              "x": -0.5345,
              "y": 2.7646,
              "z": 0.4801
            }
          },
          {
            "elSymbol": "H",
            "p3d": {
              "x": -0.3728,
              "y": 3.8337,
              "z": 0.2724
            }
          },
          {
            "elSymbol": "H",
            "p3d": {
              "x": 0.1816,
              "y": 2.4161,
              "z": 1.2384
            }
          },
          {
            "elSymbol": "H",
            "p3d": {
              "x": -1.553,
              "y": 2.6149,
              "z": 0.8489
            }
          }
        ],
        "bonds": [
          {
            "atomIds": [
              1,
              2
            ],
            "bo": "SINGLE"
          },
          {
            "atomIds": [
              1,
              3
            ],
            "bo": "SINGLE"
          },
          {
            "atomIds": [
              1,
              4
            ],
            "bo": "SINGLE"
          },
          {
            "atomIds": [
              0,
              1
            ],
            "bo": "SINGLE"
          }
        ]
      },
      "vertexId": 80,
      "buildingBlockId": 64,
      "buildingBlockType": "FRAGMENT",
      "isRCV": false,
      "properties": {
        "ATTACHMENT_POINTS": "1#Xlig:1:SINGLE:-0.1753%0.0948%-0.4464 "
      },
      "uniquefyingPropertyKeys": [],
      "allowedMutationTypes": [
        "DELETE",
        "EXTEND",
        "CHANGEBRANCH",
        "CHANGELINK",
        "ADDLINK",
        "DELETELINK",
        "DELETECHAIN"
      ],
      "vertexType": "MolecularFragment"
    },
    {
      "lstAPs": [
        {
          "id": 127877,
          "atomPositionNumber": 0,
          "atomPositionNumberInMol": 10,
          "apClass": {
            "rule": "LMonoAminoPhosphineN",
            "subClass": 0,
            "bndTyp": "SINGLE"
          },
          "dirVec": {
            "x": 3.1471,
            "y": 10.0719,
            "z": 6.8843
          }
        },
        {
          "id": 127878,
          "atomPositionNumber": 0,
          "atomPositionNumberInMol": 10,
          "apClass": {
            "rule": "LMonoAminoPhosphineSubR",
            "subClass": 0,
            "bndTyp": "SINGLE"
          },
          "dirVec": {
            "x": 0.3842,
            "y": 9.4902,
            "z": 6.7015
          }
        },
        {
          "id": 127879,
          "atomPositionNumber": 0,
          "atomPositionNumberInMol": 10,
          "apClass": {
            "rule": "LMonoAminoPhosphineSubR",
            "subClass": 0,
            "bndTyp": "SINGLE"
          },
          "dirVec": {
            "x": 2.2197,
            "y": 7.8057,
            "z": 8.2724
          }
        },
        {
          "id": 127880,
          "atomPositionNumber": 0,
          "atomPositionNumberInMol": 10,
          "apClass": {
            "rule": "MMonoAminoPhosphine",
            "subClass": 1,
            "bndTyp": "SINGLE"
          },
          "dirVec": {
            "x": 2.6023,
            "y": 7.6121,
            "z": 4.8117
          }
        }
      ],
      "lstSymAPs": [
        {
          "symIds": [
            1,
            2
          ]
        }
      ],
      "mol": {
        "atoms": [
          {
            "elSymbol": "P",
            "p3d": {
              "x": 2.1045,
              "y": 8.7901,
              "z": 6.7495
            }
          }
        ],
        "bonds": []
      },
      "vertexId": 101,
      "buildingBlockId": 3,
      "buildingBlockType": "FRAGMENT",
      "isRCV": false,
      "properties": {
        "ATTACHMENT_POINTS": "1#LMonoAminoPhosphineN:0:SINGLE:3.1471%10.0719%6.8843,LMonoAminoPhosphineSubR:0:SINGLE:0.3842%9.4902%6.7015,LMonoAminoPhosphineSubR:0:SINGLE:2.2197%7.8057%8.2724,MMonoAminoPhosphine:1:SINGLE:2.6023%7.6121%4.8117 "
      },
      "uniquefyingPropertyKeys": [],
      "allowedMutationTypes": [
        "DELETE",
        "EXTEND",
        "CHANGEBRANCH",
        "CHANGELINK",
        "ADDLINK",
        "DELETELINK",
        "DELETECHAIN"
      ],
      "vertexType": "MolecularFragment"
    },
    {
      "lstAPs": [
        {
          "id": 127881,
          "atomPositionNumber": 0,
          "atomPositionNumberInMol": 54,
          "apClass": {
            "rule": "Xlig",
            "subClass": 1,
            "bndTyp": "SINGLE"
          },
          "dirVec": {
            "x": 0.0192,
            "y": -0.0048,
            "z": -0.5645
          }
        }
      ],
      "lstSymAPs": [],
      "mol": {
        "atoms": [
          {
            "elSymbol": "C",
            "p3d": {
              "x": -1.967,
              "y": -0.0075,
              "z": -0.4937
            }
          },
          {
            "elSymbol": "N",
            "p3d": {
              "x": -3.1263,
              "y": -0.0054,
              "z": -0.4354
            }
          },
          {
            "elSymbol": "Du",
            "p3d": {
              "x": -1.9744,
              "y": 0.9926,
              "z": -0.5036
            }
          }
        ],
        "bonds": [
          {
            "atomIds": [
              0,
              1
            ],
            "bo": "TRIPLE"
          },
          {
            "atomIds": [
              2,
              0
            ],
            "bo": "SINGLE"
          }
        ]
      },
      "vertexId": 87,
      "buildingBlockId": 65,
      "buildingBlockType": "FRAGMENT",
      "isRCV": false,
      "properties": {
        "ATTACHMENT_POINTS": "1#Xlig:1:SINGLE:0.0192%-0.0048%-0.5645 "
      },
      "uniquefyingPropertyKeys": [],
      "allowedMutationTypes": [
        "DELETE",
        "EXTEND",
        "CHANGEBRANCH",
        "CHANGELINK",
        "ADDLINK",
        "DELETELINK",
        "DELETECHAIN"
      ],
      "vertexType": "MolecularFragment"
    },
    {
      "lstAPs": [
        {
          "id": 127918,
          "atomPositionNumber": 0,
          "atomPositionNumberInMol": 11,
          "apClass": {
            "rule": "SubArS",
            "subClass": 1,
            "bndTyp": "SINGLE"
          },
          "dirVec": {
            "x": 0.2973,
            "y": 0.3873,
            "z": -0.6389
          }
        }
      ],
      "lstSymAPs": [],
      "mol": {
        "atoms": [
          {
            "elSymbol": "C",
            "p3d": {
              "x": 1.6995,
              "y": 0.5593,
              "z": -1.2083
            }
          },
          {
            "elSymbol": "C",
            "p3d": {
              "x": 4.2563,
              "y": 0.8754,
              "z": -2.2592
            }
          },
          {
            "elSymbol": "C",
            "p3d": {
              "x": 2.3334,
              "y": 1.79,
              "z": -1.1338
            }
          },
          {
            "elSymbol": "C",
            "p3d": {
              "x": 2.3422,
              "y": -0.5107,
              "z": -1.8125
            }
          },
          {
            "elSymbol": "C",
            "p3d": {
              "x": 3.612,
              "y": -0.3527,
              "z": -2.3321
            }
          },
          {
            "elSymbol": "C",
            "p3d": {
              "x": 3.6062,
              "y": 1.9513,
              "z": -1.6526
            }
          },
          {
            "elSymbol": "H",
            "p3d": {
              "x": 1.833,
              "y": 2.6461,
              "z": -0.6488
            }
          },
          {
            "elSymbol": "H",
            "p3d": {
              "x": 1.8361,
              "y": -1.4773,
              "z": -1.887
            }
          },
          {
            "elSymbol": "H",
            "p3d": {
              "x": 4.115,
              "y": -1.2043,
              "z": -2.8152
            }
          },
          {
            "elSymbol": "H",
            "p3d": {
              "x": 4.1097,
              "y": 2.9214,
              "z": -1.5842
            }
          },
          {
            "elSymbol": "H",
            "p3d": {
              "x": 5.2498,
              "y": 0.9926,
              "z": -2.665
            }
          }
        ],
        "bonds": [
          {
            "atomIds": [
              0,
              3
            ],
            "bo": "SINGLE"
          },
          {
            "atomIds": [
              3,
              4
            ],
            "bo": "DOUBLE"
          },
          {
            "atomIds": [
              1,
              4
            ],
            "bo": "SINGLE"
          },
          {
            "atomIds": [
              1,
              5
            ],
            "bo": "DOUBLE"
          },
          {
            "atomIds": [
              2,
              5
            ],
            "bo": "SINGLE"
          },
          {
            "atomIds": [
              0,
              2
            ],
            "bo": "DOUBLE"
          },
          {
            "atomIds": [
              4,
              8
            ],
            "bo": "SINGLE"
          },
          {
            "atomIds": [
              5,
              9
            ],
            "bo": "SINGLE"
          },
          {
            "atomIds": [
              1,
              10
            ],
            "bo": "SINGLE"
          },
          {
            "atomIds": [
              2,
              6
            ],
            "bo": "SINGLE"
          },
          {
            "atomIds": [
              3,
              7
            ],
            "bo": "SINGLE"
          }
        ]
      },
      "vertexId": 97192,
      "buildingBlockId": 35,
      "buildingBlockType": "FRAGMENT",
      "isRCV": false,
      "properties": {
        "ATTACHMENT_POINTS": "1#SubArS:1:SINGLE:0.2973%0.3873%-0.6389 "
      },
      "uniquefyingPropertyKeys": [],
      "allowedMutationTypes": [
        "DELETE",
        "EXTEND",
        "CHANGEBRANCH",
        "CHANGELINK",
        "ADDLINK",
        "DELETELINK",
        "DELETECHAIN"
      ],
      "vertexType": "MolecularFragment"
    },
    {
      "lstAPs": [
        {
          "id": 127919,
          "atomPositionNumber": 0,
          "atomPositionNumberInMol": 22,
          "apClass": {
            "rule": "LAminoPhosphineCycloN",
            "subClass": 1,
            "bndTyp": "SINGLE"
          },
          "dirVec": {
            "x": 6.1199,
            "y": 9.1336,
            "z": -2.0435
          }
        }
      ],
      "lstSymAPs": [],
      "mol": {
        "atoms": [
          {
            "elSymbol": "N",
            "p3d": {
              "x": 5.8505,
              "y": 8.2355,
              "z": -3.4594
            }
          },
          {
            "elSymbol": "C",
            "p3d": {
              "x": 4.8225,
              "y": 7.2426,
              "z": -3.5412
            }
          },
          {
            "elSymbol": "C",
            "p3d": {
              "x": 4.1523,
              "y": 6.5371,
              "z": -2.5564
            }
          },
          {
            "elSymbol": "H",
            "p3d": {
              "x": 4.3784,
              "y": 6.7128,
              "z": -1.5122
            }
          },
          {
            "elSymbol": "C",
            "p3d": {
              "x": 3.2111,
              "y": 5.6125,
              "z": -2.9044
            }
          },
          {
            "elSymbol": "H",
            "p3d": {
              "x": 2.6898,
              "y": 5.0632,
              "z": -2.1205
            }
          },
          {
            "elSymbol": "C",
            "p3d": {
              "x": 2.8931,
              "y": 5.3499,
              "z": -4.2772
            }
          },
          {
            "elSymbol": "H",
            "p3d": {
              "x": 2.1461,
              "y": 4.6131,
              "z": -4.5621
            }
          },
          {
            "elSymbol": "C",
            "p3d": {
              "x": 3.5744,
              "y": 6.0736,
              "z": -5.2446
            }
          },
          {
            "elSymbol": "H",
            "p3d": {
              "x": 3.3488,
              "y": 5.9043,
              "z": -6.2871
            }
          },
          {
            "elSymbol": "C",
            "p3d": {
              "x": 4.5213,
              "y": 6.9735,
              "z": -4.8917
            }
          },
          {
            "elSymbol": "C",
            "p3d": {
              "x": 5.318,
              "y": 7.9347,
              "z": -5.6815
            }
          },
          {
            "elSymbol": "C",
            "p3d": {
              "x": 5.3868,
              "y": 8.1589,
              "z": -7.0529
            }
          },
          {
            "elSymbol": "H",
            "p3d": {
              "x": 4.7987,
              "y": 7.5735,
              "z": -7.7667
            }
          },
          {
            "elSymbol": "C",
            "p3d": {
              "x": 6.2214,
              "y": 9.1759,
              "z": -7.4935
            }
          },
          {
            "elSymbol": "H",
            "p3d": {
              "x": 6.2395,
              "y": 9.421,
              "z": -8.5556
            }
          },
          {
            "elSymbol": "C",
            "p3d": {
              "x": 7.018,
              "y": 9.8755,
              "z": -6.613
            }
          },
          {
            "elSymbol": "H",
            "p3d": {
              "x": 7.7039,
              "y": 10.6248,
              "z": -7.0211
            }
          },
          {
            "elSymbol": "C",
            "p3d": {
              "x": 6.9587,
              "y": 9.6342,
              "z": -5.2762
            }
          },
          {
            "elSymbol": "H",
            "p3d": {
              "x": 7.5802,
              "y": 10.2259,
              "z": -4.5813
            }
          },
          {
            "elSymbol": "C",
            "p3d": {
              "x": 6.1226,
              "y": 8.6531,
              "z": -4.7938
            }
          }
        ],
        "bonds": [
          {
            "atomIds": [
              1,
              0
            ],
            "bo": "SINGLE"
          },
          {
            "atomIds": [
              2,
              1
            ],
            "bo": "SINGLE"
          },
          {
            "atomIds": [
              3,
              2
            ],
            "bo": "SINGLE"
          },
          {
            "atomIds": [
              4,
              2
            ],
            "bo": "DOUBLE"
          },
          {
            "atomIds": [
              5,
              4
            ],
            "bo": "SINGLE"
          },
          {
            "atomIds": [
              6,
              4
            ],
            "bo": "SINGLE"
          },
          {
            "atomIds": [
              7,
              6
            ],
            "bo": "SINGLE"
          },
          {
            "atomIds": [
              8,
              6
            ],
            "bo": "DOUBLE"
          },
          {
            "atomIds": [
              9,
              8
            ],
            "bo": "SINGLE"
          },
          {
            "atomIds": [
              10,
              1
            ],
            "bo": "DOUBLE"
          },
          {
            "atomIds": [
              10,
              8
            ],
            "bo": "SINGLE"
          },
          {
            "atomIds": [
              11,
              10
            ],
            "bo": "SINGLE"
          },
          {
            "atomIds": [
              11,
              12
            ],
            "bo": "SINGLE"
          },
          {
            "atomIds": [
              11,
              20
            ],
            "bo": "DOUBLE"
          },
          {
            "atomIds": [
              13,
              12
            ],
            "bo": "SINGLE"
          },
          {
            "atomIds": [
              14,
              12
            ],
            "bo": "DOUBLE"
          },
          {
            "atomIds": [
              15,
              14
            ],
            "bo": "SINGLE"
          },
          {
            "atomIds": [
              16,
              14
            ],
            "bo": "SINGLE"
          },
          {
            "atomIds": [
              17,
              16
            ],
            "bo": "SINGLE"
          },
          {
            "atomIds": [
              18,
              16
            ],
            "bo": "DOUBLE"
          },
          {
            "atomIds": [
              18,
              20
            ],
            "bo": "SINGLE"
          },
          {
            "atomIds": [
              19,
              18
            ],
            "bo": "SINGLE"
          },
          {
            "atomIds": [
              20,
              0
            ],
            "bo": "SINGLE"
          }
        ]
      },
      "vertexId": 96536,
      "buildingBlockId": 10,
      "buildingBlockType": "FRAGMENT",
      "isRCV": false,
      "properties": {
        "ATTACHMENT_POINTS": "1#LAminoPhosphineCycloN:1:SINGLE:6.1199%9.1336%-2.0435 "
      },
      "uniquefyingPropertyKeys": [],
      "allowedMutationTypes": [
        "DELETE",
        "EXTEND",
        "CHANGEBRANCH",
        "CHANGELINK",
        "ADDLINK",
        "DELETELINK",
        "DELETECHAIN"
      ],
      "vertexType": "MolecularFragment"
    },
    {
      "lstAPs": [
        {
          "id": 127920,
          "atomPositionNumber": 0,
          "atomPositionNumberInMol": 43,
          "apClass": {
            "rule": "SubArS",
            "subClass": 1,
            "bndTyp": "SINGLE"
          },
          "dirVec": {
            "x": 0.2973,
            "y": 0.3873,
            "z": -0.6389
          }
        }
      ],
      "lstSymAPs": [],
      "mol": {
        "atoms": [
          {
            "elSymbol": "C",
            "p3d": {
              "x": 1.6995,
              "y": 0.5593,
              "z": -1.2083
            }
          },
          {
            "elSymbol": "C",
            "p3d": {
              "x": 4.2563,
              "y": 0.8754,
              "z": -2.2592
            }
          },
          {
            "elSymbol": "C",
            "p3d": {
              "x": 2.3334,
              "y": 1.79,
              "z": -1.1338
            }
          },
          {
            "elSymbol": "C",
            "p3d": {
              "x": 2.3422,
              "y": -0.5107,
              "z": -1.8125
            }
          },
          {
            "elSymbol": "C",
            "p3d": {
              "x": 3.612,
              "y": -0.3527,
              "z": -2.3321
            }
          },
          {
            "elSymbol": "C",
            "p3d": {
              "x": 3.6062,
              "y": 1.9513,
              "z": -1.6526
            }
          },
          {
            "elSymbol": "H",
            "p3d": {
              "x": 1.833,
              "y": 2.6461,
              "z": -0.6488
            }
          },
          {
            "elSymbol": "H",
            "p3d": {
              "x": 1.8361,
              "y": -1.4773,
              "z": -1.887
            }
          },
          {
            "elSymbol": "H",
            "p3d": {
              "x": 4.115,
              "y": -1.2043,
              "z": -2.8152
            }
          },
          {
            "elSymbol": "H",
            "p3d": {
              "x": 4.1097,
              "y": 2.9214,
              "z": -1.5842
            }
          },
          {
            "elSymbol": "H",
            "p3d": {
              "x": 5.2498,
              "y": 0.9926,
              "z": -2.665
            }
          }
        ],
        "bonds": [
          {
            "atomIds": [
              0,
              3
            ],
            "bo": "SINGLE"
          },
          {
            "atomIds": [
              3,
              4
            ],
            "bo": "DOUBLE"
          },
          {
            "atomIds": [
              1,
              4
            ],
            "bo": "SINGLE"
          },
          {
            "atomIds": [
              1,
              5
            ],
            "bo": "DOUBLE"
          },
          {
            "atomIds": [
              2,
              5
            ],
            "bo": "SINGLE"
          },
          {
            "atomIds": [
              0,
              2
            ],
            "bo": "DOUBLE"
          },
          {
            "atomIds": [
              4,
              8
            ],
            "bo": "SINGLE"
          },
          {
            "atomIds": [
              5,
              9
            ],
            "bo": "SINGLE"
          },
          {
            "atomIds": [
              1,
              10
            ],
            "bo": "SINGLE"
          },
          {
            "atomIds": [
              2,
              6
            ],
            "bo": "SINGLE"
          },
          {
            "atomIds": [
              3,
              7
            ],
            "bo": "SINGLE"
          }
        ]
      },
      "vertexId": 96547,
      "buildingBlockId": 35,
      "buildingBlockType": "FRAGMENT",
      "isRCV": false,
      "properties": {
        "ATTACHMENT_POINTS": "1#SubArS:1:SINGLE:0.2973%0.3873%-0.6389 "
      },
      "uniquefyingPropertyKeys": [],
      "allowedMutationTypes": [
        "DELETE",
        "EXTEND",
        "CHANGEBRANCH",
        "CHANGELINK",
        "ADDLINK",
        "DELETELINK",
        "DELETECHAIN"
      ],
      "vertexType": "MolecularFragment"
    }
  ],
  "gEdges": [
    {
      "srcAPID": 127873,
      "trgAPID": 127876,
      "bondType": "SINGLE"
    },
    {
      "srcAPID": 127875,
      "trgAPID": 127880,
      "bondType": "SINGLE"
    },
    {
      "srcAPID": 127874,
      "trgAPID": 127881,
      "bondType": "SINGLE"
    },
    {
      "srcAPID": 127879,
      "trgAPID": 127918,
      "bondType": "SINGLE"
    },
    {
      "srcAPID": 127877,
      "trgAPID": 127919,
      "bondType": "SINGLE"
    },
    {
      "srcAPID": 127878,
      "trgAPID": 127920,
      "bondType": "SINGLE"
    }
  ],
  "gRings": [],
  "symVertices": [
    {
      "symIds": [
        97192,
        96547
      ]
    }
  ]
}

> <SMILES>
[Pt](C#O)(OC([H])([H])[H])([P](C=1C(=C(C(=C(C1[H])[H])[H])[H])[H])(N2C=3C([H])=C([H])C([H])=C([H])C3C=4C([H])=C([H])C([H])=C(C42)[H])C=5C(=C(C(=C(C5[H])[H])[H])[H])[H])C#N

$$$$
