M00021300
  CDK     04222216203D

 66 72  0  0  0  0  0  0  0  0999 V2000
   -3.3363   -0.0652   -0.6444 Pt  0  0  0  0  0  0  0  0  0  0  0  0
   -5.2951    0.0939   -0.6353 C   0  0  0  0  0  0  0  0  0  0  0  0
   -6.4276    0.2334   -0.6106 O   0  0  0  0  0  0  0  0  0  0  0  0
   -2.6819    1.8092   -0.0824 O   0  0  0  0  0  0  0  0  0  0  0  0
   -3.1814    2.2556    1.1590 C   0  0  0  0  0  0  0  0  0  0  0  0
   -2.8078    3.2849    1.2677 H   0  0  0  0  0  0  0  0  0  0  0  0
   -2.7971    1.6244    1.9775 H   0  0  0  0  0  0  0  0  0  0  0  0
   -4.2769    2.2453    1.1361 H   0  0  0  0  0  0  0  0  0  0  0  0
   -1.1133    0.1200   -0.5382 P   0  0  0  0  0  0  0  0  0  0  0  0
   -0.3608    0.7006    0.8366 O   0  0  0  0  0  0  0  0  0  0  0  0
   -0.3430   -1.3527   -0.8133 O   0  0  0  0  0  0  0  0  0  0  0  0
   -0.2353   -0.2568    1.8603 C   0  0  0  0  0  0  0  0  0  0  0  0
   -1.0851   -0.0581    2.9837 C   0  0  0  0  0  0  0  0  0  0  0  0
   -1.8101    0.7651    2.9472 H   0  0  0  0  0  0  0  0  0  0  0  0
   -0.9558   -0.8946    4.0594 C   0  0  0  0  0  0  0  0  0  0  0  0
   -1.5761   -0.7624    4.9468 H   0  0  0  0  0  0  0  0  0  0  0  0
   -0.0147   -1.9751    4.0314 C   0  0  0  0  0  0  0  0  0  0  0  0
    0.0790   -2.8829    5.1340 C   0  0  0  0  0  0  0  0  0  0  0  0
   -0.5515   -2.7108    6.0060 H   0  0  0  0  0  0  0  0  0  0  0  0
    0.9399   -3.9499    5.0889 C   0  0  0  0  0  0  0  0  0  0  0  0
    1.0162   -4.6453    5.9240 H   0  0  0  0  0  0  0  0  0  0  0  0
    1.7458   -4.1698    3.9348 C   0  0  0  0  0  0  0  0  0  0  0  0
    2.4052   -5.0374    3.9128 H   0  0  0  0  0  0  0  0  0  0  0  0
    1.6865   -3.3070    2.8695 C   0  0  0  0  0  0  0  0  0  0  0  0
    2.2941   -3.4844    1.9795 H   0  0  0  0  0  0  0  0  0  0  0  0
    0.8185   -2.1686    2.8955 C   0  0  0  0  0  0  0  0  0  0  0  0
    0.7410   -1.2379    1.7989 C   0  0  0  0  0  0  0  0  0  0  0  0
    1.6126   -1.3295    0.6143 C   0  0  0  0  0  0  0  0  0  0  0  0
    3.0493   -1.3316    0.7036 C   0  0  0  0  0  0  0  0  0  0  0  0
    3.7378   -1.1310    1.9430 C   0  0  0  0  0  0  0  0  0  0  0  0
    3.1520   -0.9516    2.8464 H   0  0  0  0  0  0  0  0  0  0  0  0
    5.1088   -1.1458    1.9949 C   0  0  0  0  0  0  0  0  0  0  0  0
    5.6321   -0.9896    2.9381 H   0  0  0  0  0  0  0  0  0  0  0  0
    5.8753   -1.3592    0.8131 C   0  0  0  0  0  0  0  0  0  0  0  0
    6.9617   -1.3760    0.8865 H   0  0  0  0  0  0  0  0  0  0  0  0
    5.2455   -1.5299   -0.3935 C   0  0  0  0  0  0  0  0  0  0  0  0
    5.8203   -1.6812   -1.3069 H   0  0  0  0  0  0  0  0  0  0  0  0
    3.8171   -1.5047   -0.4804 C   0  0  0  0  0  0  0  0  0  0  0  0
    3.1644   -1.6296   -1.7497 C   0  0  0  0  0  0  0  0  0  0  0  0
    3.7758   -1.7738   -2.6418 H   0  0  0  0  0  0  0  0  0  0  0  0
    1.8006   -1.5474   -1.8450 C   0  0  0  0  0  0  0  0  0  0  0  0
    1.2709   -1.6089   -2.7960 H   0  0  0  0  0  0  0  0  0  0  0  0
    1.0472   -1.3757   -0.6504 C   0  0  0  0  0  0  0  0  0  0  0  0
   -0.3575    1.0941   -1.6473 O   0  0  0  0  0  0  0  0  0  0  0  0
   -2.6320    0.2119   -3.0105 H   0  0  0  0  0  0  0  0  0  0  0  0
   -2.2581    1.2262   -3.1995 C   0  0  0  0  0  0  0  0  0  0  0  0
   -1.1795    1.7888   -2.5582 C   0  0  0  0  0  0  0  0  0  0  0  0
   -2.4911    3.2694   -4.5132 C   0  0  0  0  0  0  0  0  0  0  0  0
   -0.6923    3.1099   -2.8383 C   0  0  0  0  0  0  0  0  0  0  0  0
   -2.9188    2.0052   -4.1962 C   0  0  0  0  0  0  0  0  0  0  0  0
   -1.3674    3.8522   -3.8424 C   0  0  0  0  0  0  0  0  0  0  0  0
    0.4196    3.6858   -2.1526 C   0  0  0  0  0  0  0  0  0  0  0  0
   -3.7753    1.5607   -4.7051 H   0  0  0  0  0  0  0  0  0  0  0  0
   -1.4173    5.7368   -4.9238 H   0  0  0  0  0  0  0  0  0  0  0  0
   -2.9999    3.8544   -5.2776 H   0  0  0  0  0  0  0  0  0  0  0  0
    0.8423    4.9529   -2.4705 C   0  0  0  0  0  0  0  0  0  0  0  0
    0.9108    3.0947   -1.3758 H   0  0  0  0  0  0  0  0  0  0  0  0
    1.6873    5.4053   -1.9546 H   0  0  0  0  0  0  0  0  0  0  0  0
    0.1744    5.7000   -3.4834 C   0  0  0  0  0  0  0  0  0  0  0  0
    0.5333    6.7024   -3.7151 H   0  0  0  0  0  0  0  0  0  0  0  0
   -0.9014    5.1686   -4.1519 C   0  0  0  0  0  0  0  0  0  0  0  0
   -3.8427   -1.8814   -1.3860 O   0  0  0  0  0  0  0  0  0  0  0  0
   -3.0553   -2.9089   -0.8195 C   0  0  0  0  0  0  0  0  0  0  0  0
   -3.5533   -3.8459   -1.1081 H   0  0  0  0  0  0  0  0  0  0  0  0
   -3.0321   -2.8129    0.2724 H   0  0  0  0  0  0  0  0  0  0  0  0
   -2.0411   -2.8785   -1.2444 H   0  0  0  0  0  0  0  0  0  0  0  0
  2  3  3  0  0  0  0
  1  2  1  0  0  0  0
  5  6  1  0  0  0  0
  5  7  1  0  0  0  0
  5  8  1  0  0  0  0
  4  5  1  0  0  0  0
  1  4  1  0  0  0  0
 10  9  1  0  0  0  0
 11  9  1  0  0  0  0
 12 10  1  0  0  0  0
 13 12  2  0  0  0  0
 14 13  1  0  0  0  0
 15 13  1  0  0  0  0
 16 15  1  0  0  0  0
 17 15  2  0  0  0  0
 18 17  1  0  0  0  0
 19 18  1  0  0  0  0
 20 18  2  0  0  0  0
 21 20  1  0  0  0  0
 22 20  1  0  0  0  0
 23 22  1  0  0  0  0
 24 22  2  0  0  0  0
 24 26  1  0  0  0  0
 25 24  1  0  0  0  0
 26 17  1  0  0  0  0
 26 27  2  0  0  0  0
 27 12  1  0  0  0  0
 28 27  1  0  0  0  0
 28 43  1  0  0  0  0
 29 28  2  0  0  0  0
 30 29  1  0  0  0  0
 31 30  1  0  0  0  0
 32 30  2  0  0  0  0
 33 32  1  0  0  0  0
 34 32  1  0  0  0  0
 35 34  1  0  0  0  0
 36 34  2  0  0  0  0
 36 38  1  0  0  0  0
 37 36  1  0  0  0  0
 38 29  1  0  0  0  0
 39 38  2  0  0  0  0
 40 39  1  0  0  0  0
 41 39  1  0  0  0  0
 41 43  2  0  0  0  0
 42 41  1  0  0  0  0
 43 11  1  0  0  0  0
  1  9  1  0  0  0  0
  9 44  1  0  0  0  0
 45 46  1  0  0  0  0
 46 47  1  0  0  0  0
 46 50  2  0  0  0  0
 47 49  2  0  0  0  0
 49 51  1  0  0  0  0
 48 50  1  0  0  0  0
 48 51  2  0  0  0  0
 52 49  1  0  0  0  0
 51 61  1  0  0  0  0
 52 56  2  0  0  0  0
 56 59  1  0  0  0  0
 59 61  2  0  0  0  0
 48 55  1  0  0  0  0
 50 53  1  0  0  0  0
 52 57  1  0  0  0  0
 54 61  1  0  0  0  0
 59 60  1  0  0  0  0
 56 58  1  0  0  0  0
 44 47  1  0  0  0  0
 63 64  1  0  0  0  0
 63 65  1  0  0  0  0
 63 66  1  0  0  0  0
 62 63  1  0  0  0  0
  1 62  1  0  0  0  0
M  END
> <PM6_ENERGY>
-380.737

> <UID>
IDLFNRQVFKDLJT-ZCOXVELENA-N

> <FITNESS>
1.14133

> <GCODE>
22661

> <GraphENC>
22661 72_1_0,80_65_1,111_50_1,86_65_1,73979_52_1,560864_39_1, 72_0_80_0_SINGLE_Xlig:0_Xlig:1,72_2_111_1_SINGLE_scaff:0_MPhosphite:1,72_1_86_0_SINGLE_Xlig:0_Xlig:1,111_0_73979_0_SINGLE_LPhosphiteSubO:0_LPhosphiteSubO:1,73979_1_560864_0_SINGLE_OPhosphiteSub:1_SubArM:1, 

> <GraphJson>
{
  "graphId": 22661,
  "gVertices": [
    {
      "lstAPs": [
        {
          "id": 623100,
          "atomPositionNumber": 0,
          "atomPositionNumberInMol": 0,
          "apClass": {
            "rule": "Xlig",
            "subClass": 0,
            "bndTyp": "SINGLE"
          },
          "dirVec": {
            "x": -2.3339,
            "y": -0.0087,
            "z": 0.8172
          }
        },
        {
          "id": 623101,
          "atomPositionNumber": 0,
          "atomPositionNumberInMol": 0,
          "apClass": {
            "rule": "Xlig",
            "subClass": 0,
            "bndTyp": "SINGLE"
          },
          "dirVec": {
            "x": 2.336,
            "y": -5.0E-4,
            "z": 0.829
          }
        },
        {
          "id": 623102,
          "atomPositionNumber": 0,
          "atomPositionNumberInMol": 0,
          "apClass": {
            "rule": "scaff",
            "subClass": 0,
            "bndTyp": "SINGLE"
          },
          "dirVec": {
            "x": -0.0095,
            "y": 0.0046,
            "z": -1.7113
          }
        }
      ],
      "lstSymAPs": [
        {
          "symIds": [
            0,
            1
          ]
        }
      ],
      "mol": {
        "atoms": [
          {
            "elSymbol": "Pt",
            "p3d": {
              "x": -0.0098,
              "y": 0.0049,
              "z": 0.6289
            }
          },
          {
            "elSymbol": "C",
            "p3d": {
              "x": -6.0E-4,
              "y": 0.0016,
              "z": 2.5609
            }
          },
          {
            "elSymbol": "O",
            "p3d": {
              "x": 0.0025,
              "y": -0.0041,
              "z": 3.6974
            }
          },
          {
            "elSymbol": "Du",
            "p3d": {
              "x": -0.007,
              "y": 1.0013,
              "z": 0.6372
            }
          },
          {
            "elSymbol": "Du",
            "p3d": {
              "x": -0.0014,
              "y": 0.9902,
              "z": 2.5698
            }
          }
        ],
        "bonds": [
          {
            "atomIds": [
              1,
              2
            ],
            "bo": "TRIPLE"
          },
          {
            "atomIds": [
              0,
              1
            ],
            "bo": "SINGLE"
          },
          {
            "atomIds": [
              3,
              0
            ],
            "bo": "SINGLE"
          },
          {
            "atomIds": [
              4,
              1
            ],
            "bo": "SINGLE"
          }
        ]
      },
      "vertexId": 72,
      "buildingBlockId": 0,
      "buildingBlockType": "SCAFFOLD",
      "isRCV": false,
      "properties": {
        "ATTACHMENT_POINTS": "1#Xlig:0:SINGLE:-2.3339%-0.0087%0.8172,Xlig:0:SINGLE:2.3360%-0.0005%0.8290,scaff:0:SINGLE:-0.0095%0.0046%-1.7113 "
      },
      "uniquefyingPropertyKeys": [],
      "allowedMutationTypes": [
        "DELETE",
        "EXTEND",
        "CHANGEBRANCH",
        "CHANGELINK",
        "ADDLINK",
        "DELETELINK",
        "DELETECHAIN"
      ],
      "vertexType": "MolecularFragment"
    },
    {
      "lstAPs": [
        {
          "id": 623103,
          "atomPositionNumber": 0,
          "atomPositionNumberInMol": 5,
          "apClass": {
            "rule": "Xlig",
            "subClass": 1,
            "bndTyp": "SINGLE"
          },
          "dirVec": {
            "x": -0.1753,
            "y": 0.0948,
            "z": -0.4464
          }
        }
      ],
      "lstSymAPs": [],
      "mol": {
        "atoms": [
          {
            "elSymbol": "O",
            "p3d": {
              "x": -0.3534,
              "y": 2.1044,
              "z": -0.7339
            }
          },
          {
            "elSymbol": "C",
            "p3d": {
              "x": -0.5345,
              "y": 2.7646,
              "z": 0.4801
            }
          },
          {
            "elSymbol": "H",
            "p3d": {
              "x": -0.3728,
              "y": 3.8337,
              "z": 0.2724
            }
          },
          {
            "elSymbol": "H",
            "p3d": {
              "x": 0.1816,
              "y": 2.4161,
              "z": 1.2384
            }
          },
          {
            "elSymbol": "H",
            "p3d": {
              "x": -1.553,
              "y": 2.6149,
              "z": 0.8489
            }
          }
        ],
        "bonds": [
          {
            "atomIds": [
              1,
              2
            ],
            "bo": "SINGLE"
          },
          {
            "atomIds": [
              1,
              3
            ],
            "bo": "SINGLE"
          },
          {
            "atomIds": [
              1,
              4
            ],
            "bo": "SINGLE"
          },
          {
            "atomIds": [
              0,
              1
            ],
            "bo": "SINGLE"
          }
        ]
      },
      "vertexId": 80,
      "buildingBlockId": 64,
      "buildingBlockType": "FRAGMENT",
      "isRCV": false,
      "properties": {
        "ATTACHMENT_POINTS": "1#Xlig:1:SINGLE:-0.1753%0.0948%-0.4464 "
      },
      "uniquefyingPropertyKeys": [],
      "allowedMutationTypes": [
        "DELETE",
        "EXTEND",
        "CHANGEBRANCH",
        "CHANGELINK",
        "ADDLINK",
        "DELETELINK",
        "DELETECHAIN"
      ],
      "vertexType": "MolecularFragment"
    },
    {
      "lstAPs": [
        {
          "id": 623104,
          "atomPositionNumber": 0,
          "atomPositionNumberInMol": 10,
          "apClass": {
            "rule": "LPhosphiteSubO",
            "subClass": 0,
            "bndTyp": "SINGLE"
          },
          "dirVec": {
            "x": 7.8978,
            "y": 2.2953,
            "z": -1.0004
          }
        },
        {
          "id": 623105,
          "atomPositionNumber": 0,
          "atomPositionNumberInMol": 10,
          "apClass": {
            "rule": "MPhosphite",
            "subClass": 1,
            "bndTyp": "SINGLE"
          },
          "dirVec": {
            "x": 8.1055,
            "y": 3.5873,
            "z": 1.9978
          }
        }
      ],
      "lstSymAPs": [],
      "mol": {
        "atoms": [
          {
            "elSymbol": "P",
            "p3d": {
              "x": 7.9084,
              "y": 1.9754,
              "z": 0.5292
            }
          },
          {
            "elSymbol": "O",
            "p3d": {
              "x": 9.0676,
              "y": 0.8826,
              "z": 0.4629
            }
          },
          {
            "elSymbol": "O",
            "p3d": {
              "x": 6.6295,
              "y": 1.0833,
              "z": 0.8378
            }
          },
          {
            "elSymbol": "C",
            "p3d": {
              "x": 9.1253,
              "y": -0.1058,
              "z": 1.5323
            }
          },
          {
            "elSymbol": "C",
            "p3d": {
              "x": 10.1483,
              "y": 0.0879,
              "z": 2.4774
            }
          },
          {
            "elSymbol": "H",
            "p3d": {
              "x": 10.8506,
              "y": 0.9254,
              "z": 2.3567
            }
          },
          {
            "elSymbol": "C",
            "p3d": {
              "x": 10.266,
              "y": -0.7624,
              "z": 3.5022
            }
          },
          {
            "elSymbol": "H",
            "p3d": {
              "x": 11.0535,
              "y": -0.661,
              "z": 4.2292
            }
          },
          {
            "elSymbol": "C",
            "p3d": {
              "x": 9.3117,
              "y": -1.8292,
              "z": 3.6241
            }
          },
          {
            "elSymbol": "C",
            "p3d": {
              "x": 9.3872,
              "y": -2.7418,
              "z": 4.7564
            }
          },
          {
            "elSymbol": "H",
            "p3d": {
              "x": 10.1945,
              "y": -2.6628,
              "z": 5.4815
            }
          },
          {
            "elSymbol": "C",
            "p3d": {
              "x": 8.4129,
              "y": -3.6623,
              "z": 4.9017
            }
          },
          {
            "elSymbol": "H",
            "p3d": {
              "x": 8.4465,
              "y": -4.3006,
              "z": 5.782
            }
          },
          {
            "elSymbol": "C",
            "p3d": {
              "x": 7.4123,
              "y": -3.8689,
              "z": 3.9886
            }
          },
          {
            "elSymbol": "H",
            "p3d": {
              "x": 6.6644,
              "y": -4.6462,
              "z": 4.1245
            }
          },
          {
            "elSymbol": "C",
            "p3d": {
              "x": 7.362,
              "y": -2.9904,
              "z": 2.8379
            }
          },
          {
            "elSymbol": "H",
            "p3d": {
              "x": 6.5752,
              "y": -3.1171,
              "z": 2.102
            }
          },
          {
            "elSymbol": "C",
            "p3d": {
              "x": 8.2931,
              "y": -2.0283,
              "z": 2.6386
            }
          },
          {
            "elSymbol": "C",
            "p3d": {
              "x": 8.2222,
              "y": -1.1106,
              "z": 1.5036
            }
          },
          {
            "elSymbol": "C",
            "p3d": {
              "x": 7.2264,
              "y": -1.2173,
              "z": 0.4606
            }
          },
          {
            "elSymbol": "C",
            "p3d": {
              "x": 7.0184,
              "y": -2.412,
              "z": -0.3736
            }
          },
          {
            "elSymbol": "C",
            "p3d": {
              "x": 7.8626,
              "y": -3.5428,
              "z": -0.2234
            }
          },
          {
            "elSymbol": "H",
            "p3d": {
              "x": 8.6354,
              "y": -3.5405,
              "z": 0.5507
            }
          },
          {
            "elSymbol": "C",
            "p3d": {
              "x": 7.682,
              "y": -4.6511,
              "z": -1.0479
            }
          },
          {
            "elSymbol": "H",
            "p3d": {
              "x": 8.311,
              "y": -5.5242,
              "z": -0.9425
            }
          },
          {
            "elSymbol": "C",
            "p3d": {
              "x": 6.7355,
              "y": -4.6351,
              "z": -2.0117
            }
          },
          {
            "elSymbol": "H",
            "p3d": {
              "x": 6.5863,
              "y": -5.522,
              "z": -2.6583
            }
          },
          {
            "elSymbol": "C",
            "p3d": {
              "x": 5.9066,
              "y": -3.5062,
              "z": -2.2127
            }
          },
          {
            "elSymbol": "H",
            "p3d": {
              "x": 5.1559,
              "y": -3.5321,
              "z": -3.0139
            }
          },
          {
            "elSymbol": "C",
            "p3d": {
              "x": 6.0185,
              "y": -2.3785,
              "z": -1.4005
            }
          },
          {
            "elSymbol": "C",
            "p3d": {
              "x": 5.2406,
              "y": -1.2493,
              "z": -1.6114
            }
          },
          {
            "elSymbol": "H",
            "p3d": {
              "x": 4.4697,
              "y": -1.2606,
              "z": -2.3785
            }
          },
          {
            "elSymbol": "C",
            "p3d": {
              "x": 5.4446,
              "y": -0.1476,
              "z": -0.8639
            }
          },
          {
            "elSymbol": "H",
            "p3d": {
              "x": 4.8409,
              "y": 0.7494,
              "z": -1.0205
            }
          },
          {
            "elSymbol": "C",
            "p3d": {
              "x": 6.4251,
              "y": -0.1479,
              "z": 0.1006
            }
          }
        ],
        "bonds": [
          {
            "atomIds": [
              1,
              0
            ],
            "bo": "SINGLE"
          },
          {
            "atomIds": [
              2,
              0
            ],
            "bo": "SINGLE"
          },
          {
            "atomIds": [
              3,
              1
            ],
            "bo": "SINGLE"
          },
          {
            "atomIds": [
              4,
              3
            ],
            "bo": "DOUBLE"
          },
          {
            "atomIds": [
              5,
              4
            ],
            "bo": "SINGLE"
          },
          {
            "atomIds": [
              6,
              4
            ],
            "bo": "SINGLE"
          },
          {
            "atomIds": [
              7,
              6
            ],
            "bo": "SINGLE"
          },
          {
            "atomIds": [
              8,
              6
            ],
            "bo": "DOUBLE"
          },
          {
            "atomIds": [
              9,
              8
            ],
            "bo": "SINGLE"
          },
          {
            "atomIds": [
              10,
              9
            ],
            "bo": "SINGLE"
          },
          {
            "atomIds": [
              11,
              9
            ],
            "bo": "DOUBLE"
          },
          {
            "atomIds": [
              12,
              11
            ],
            "bo": "SINGLE"
          },
          {
            "atomIds": [
              13,
              11
            ],
            "bo": "SINGLE"
          },
          {
            "atomIds": [
              14,
              13
            ],
            "bo": "SINGLE"
          },
          {
            "atomIds": [
              15,
              13
            ],
            "bo": "DOUBLE"
          },
          {
            "atomIds": [
              15,
              17
            ],
            "bo": "SINGLE"
          },
          {
            "atomIds": [
              16,
              15
            ],
            "bo": "SINGLE"
          },
          {
            "atomIds": [
              17,
              8
            ],
            "bo": "SINGLE"
          },
          {
            "atomIds": [
              17,
              18
            ],
            "bo": "DOUBLE"
          },
          {
            "atomIds": [
              18,
              3
            ],
            "bo": "SINGLE"
          },
          {
            "atomIds": [
              19,
              18
            ],
            "bo": "SINGLE"
          },
          {
            "atomIds": [
              19,
              34
            ],
            "bo": "SINGLE"
          },
          {
            "atomIds": [
              20,
              19
            ],
            "bo": "DOUBLE"
          },
          {
            "atomIds": [
              21,
              20
            ],
            "bo": "SINGLE"
          },
          {
            "atomIds": [
              22,
              21
            ],
            "bo": "SINGLE"
          },
          {
            "atomIds": [
              23,
              21
            ],
            "bo": "DOUBLE"
          },
          {
            "atomIds": [
              24,
              23
            ],
            "bo": "SINGLE"
          },
          {
            "atomIds": [
              25,
              23
            ],
            "bo": "SINGLE"
          },
          {
            "atomIds": [
              26,
              25
            ],
            "bo": "SINGLE"
          },
          {
            "atomIds": [
              27,
              25
            ],
            "bo": "DOUBLE"
          },
          {
            "atomIds": [
              27,
              29
            ],
            "bo": "SINGLE"
          },
          {
            "atomIds": [
              28,
              27
            ],
            "bo": "SINGLE"
          },
          {
            "atomIds": [
              29,
              20
            ],
            "bo": "SINGLE"
          },
          {
            "atomIds": [
              30,
              29
            ],
            "bo": "DOUBLE"
          },
          {
            "atomIds": [
              31,
              30
            ],
            "bo": "SINGLE"
          },
          {
            "atomIds": [
              32,
              30
            ],
            "bo": "SINGLE"
          },
          {
            "atomIds": [
              32,
              34
            ],
            "bo": "DOUBLE"
          },
          {
            "atomIds": [
              33,
              32
            ],
            "bo": "SINGLE"
          },
          {
            "atomIds": [
              34,
              2
            ],
            "bo": "SINGLE"
          }
        ]
      },
      "vertexId": 111,
      "buildingBlockId": 49,
      "buildingBlockType": "FRAGMENT",
      "isRCV": false,
      "properties": {
        "ATTACHMENT_POINTS": "1#LPhosphiteSubO:0:SINGLE:7.8978%2.2953%-1.0004,MPhosphite:1:SINGLE:8.1055%3.5873%1.9978 "
      },
      "uniquefyingPropertyKeys": [],
      "allowedMutationTypes": [
        "DELETE",
        "EXTEND",
        "CHANGEBRANCH",
        "CHANGELINK",
        "ADDLINK",
        "DELETELINK",
        "DELETECHAIN"
      ],
      "vertexType": "MolecularFragment"
    },
    {
      "lstAPs": [
        {
          "id": 623106,
          "atomPositionNumber": 0,
          "atomPositionNumberInMol": 63,
          "apClass": {
            "rule": "Xlig",
            "subClass": 1,
            "bndTyp": "SINGLE"
          },
          "dirVec": {
            "x": -0.1753,
            "y": 0.0948,
            "z": -0.4464
          }
        }
      ],
      "lstSymAPs": [],
      "mol": {
        "atoms": [
          {
            "elSymbol": "O",
            "p3d": {
              "x": -0.3534,
              "y": 2.1044,
              "z": -0.7339
            }
          },
          {
            "elSymbol": "C",
            "p3d": {
              "x": -0.5345,
              "y": 2.7646,
              "z": 0.4801
            }
          },
          {
            "elSymbol": "H",
            "p3d": {
              "x": -0.3728,
              "y": 3.8337,
              "z": 0.2724
            }
          },
          {
            "elSymbol": "H",
            "p3d": {
              "x": 0.1816,
              "y": 2.4161,
              "z": 1.2384
            }
          },
          {
            "elSymbol": "H",
            "p3d": {
              "x": -1.553,
              "y": 2.6149,
              "z": 0.8489
            }
          }
        ],
        "bonds": [
          {
            "atomIds": [
              1,
              2
            ],
            "bo": "SINGLE"
          },
          {
            "atomIds": [
              1,
              3
            ],
            "bo": "SINGLE"
          },
          {
            "atomIds": [
              1,
              4
            ],
            "bo": "SINGLE"
          },
          {
            "atomIds": [
              0,
              1
            ],
            "bo": "SINGLE"
          }
        ]
      },
      "vertexId": 86,
      "buildingBlockId": 64,
      "buildingBlockType": "FRAGMENT",
      "isRCV": false,
      "properties": {
        "ATTACHMENT_POINTS": "1#Xlig:1:SINGLE:-0.1753%0.0948%-0.4464 "
      },
      "uniquefyingPropertyKeys": [],
      "allowedMutationTypes": [
        "DELETE",
        "EXTEND",
        "CHANGEBRANCH",
        "CHANGELINK",
        "ADDLINK",
        "DELETELINK",
        "DELETECHAIN"
      ],
      "vertexType": "MolecularFragment"
    },
    {
      "lstAPs": [
        {
          "id": 623107,
          "atomPositionNumber": 0,
          "atomPositionNumberInMol": 45,
          "apClass": {
            "rule": "LPhosphiteSubO",
            "subClass": 1,
            "bndTyp": "SINGLE"
          },
          "dirVec": {
            "x": 0.7035,
            "y": 2.9119,
            "z": 2.8175
          }
        },
        {
          "id": 623108,
          "atomPositionNumber": 0,
          "atomPositionNumberInMol": 45,
          "apClass": {
            "rule": "OPhosphiteSub",
            "subClass": 1,
            "bndTyp": "SINGLE"
          },
          "dirVec": {
            "x": 0.0564,
            "y": 5.2897,
            "z": 1.9394
          }
        }
      ],
      "lstSymAPs": [],
      "mol": {
        "atoms": [
          {
            "elSymbol": "O",
            "p3d": {
              "x": -0.1418,
              "y": 4.2412,
              "z": 2.9314
            }
          }
        ],
        "bonds": []
      },
      "vertexId": 73979,
      "buildingBlockId": 51,
      "buildingBlockType": "FRAGMENT",
      "isRCV": false,
      "properties": {
        "ATTACHMENT_POINTS": "1#LPhosphiteSubO:1:SINGLE:0.7035%2.9119%2.8175,OPhosphiteSub:1:SINGLE:0.0564%5.2897%1.9394 "
      },
      "uniquefyingPropertyKeys": [],
      "allowedMutationTypes": [
        "DELETE",
        "EXTEND",
        "CHANGEBRANCH",
        "CHANGELINK",
        "ADDLINK",
        "DELETELINK",
        "DELETECHAIN"
      ],
      "vertexType": "MolecularFragment"
    },
    {
      "lstAPs": [
        {
          "id": 623139,
          "atomPositionNumber": 2,
          "atomPositionNumberInMol": 48,
          "apClass": {
            "rule": "SubArM",
            "subClass": 1,
            "bndTyp": "SINGLE"
          },
          "dirVec": {
            "x": 0.2839,
            "y": 0.3907,
            "z": -0.6271
          }
        }
      ],
      "lstSymAPs": [],
      "mol": {
        "atoms": [
          {
            "elSymbol": "H",
            "p3d": {
              "x": 1.8079,
              "y": 2.6521,
              "z": -0.6457
            }
          },
          {
            "elSymbol": "C",
            "p3d": {
              "x": 2.3292,
              "y": 1.8028,
              "z": -1.1346
            }
          },
          {
            "elSymbol": "C",
            "p3d": {
              "x": 1.6928,
              "y": 0.5701,
              "z": -1.2214
            }
          },
          {
            "elSymbol": "C",
            "p3d": {
              "x": 4.26,
              "y": 0.9161,
              "z": -2.2564
            }
          },
          {
            "elSymbol": "C",
            "p3d": {
              "x": 2.3547,
              "y": -0.5116,
              "z": -1.8205
            }
          },
          {
            "elSymbol": "C",
            "p3d": {
              "x": 3.6118,
              "y": 1.9867,
              "z": -1.654
            }
          },
          {
            "elSymbol": "C",
            "p3d": {
              "x": 3.6519,
              "y": -0.333,
              "z": -2.339
            }
          },
          {
            "elSymbol": "C",
            "p3d": {
              "x": 1.7318,
              "y": -1.7781,
              "z": -1.8989
            }
          },
          {
            "elSymbol": "H",
            "p3d": {
              "x": 4.0936,
              "y": 2.9609,
              "z": -1.5808
            }
          },
          {
            "elSymbol": "H",
            "p3d": {
              "x": 5.3077,
              "y": -1.3005,
              "z": -3.3639
            }
          },
          {
            "elSymbol": "H",
            "p3d": {
              "x": 5.2705,
              "y": 1.0583,
              "z": -2.6578
            }
          },
          {
            "elSymbol": "C",
            "p3d": {
              "x": 2.3998,
              "y": -2.8526,
              "z": -2.5007
            }
          },
          {
            "elSymbol": "H",
            "p3d": {
              "x": 0.724,
              "y": -1.9306,
              "z": -1.4908
            }
          },
          {
            "elSymbol": "H",
            "p3d": {
              "x": 1.9155,
              "y": -3.8304,
              "z": -2.576
            }
          },
          {
            "elSymbol": "C",
            "p3d": {
              "x": 3.684,
              "y": -2.6697,
              "z": -3.0355
            }
          },
          {
            "elSymbol": "H",
            "p3d": {
              "x": 4.2028,
              "y": -3.5195,
              "z": -3.4955
            }
          },
          {
            "elSymbol": "C",
            "p3d": {
              "x": 4.3092,
              "y": -1.4197,
              "z": -2.9387
            }
          }
        ],
        "bonds": [
          {
            "atomIds": [
              0,
              1
            ],
            "bo": "SINGLE"
          },
          {
            "atomIds": [
              1,
              2
            ],
            "bo": "SINGLE"
          },
          {
            "atomIds": [
              1,
              5
            ],
            "bo": "DOUBLE"
          },
          {
            "atomIds": [
              2,
              4
            ],
            "bo": "DOUBLE"
          },
          {
            "atomIds": [
              4,
              6
            ],
            "bo": "SINGLE"
          },
          {
            "atomIds": [
              3,
              5
            ],
            "bo": "SINGLE"
          },
          {
            "atomIds": [
              3,
              6
            ],
            "bo": "DOUBLE"
          },
          {
            "atomIds": [
              7,
              4
            ],
            "bo": "SINGLE"
          },
          {
            "atomIds": [
              6,
              16
            ],
            "bo": "SINGLE"
          },
          {
            "atomIds": [
              7,
              11
            ],
            "bo": "DOUBLE"
          },
          {
            "atomIds": [
              11,
              14
            ],
            "bo": "SINGLE"
          },
          {
            "atomIds": [
              14,
              16
            ],
            "bo": "DOUBLE"
          },
          {
            "atomIds": [
              3,
              10
            ],
            "bo": "SINGLE"
          },
          {
            "atomIds": [
              5,
              8
            ],
            "bo": "SINGLE"
          },
          {
            "atomIds": [
              7,
              12
            ],
            "bo": "SINGLE"
          },
          {
            "atomIds": [
              9,
              16
            ],
            "bo": "SINGLE"
          },
          {
            "atomIds": [
              14,
              15
            ],
            "bo": "SINGLE"
          },
          {
            "atomIds": [
              11,
              13
            ],
            "bo": "SINGLE"
          }
        ]
      },
      "vertexId": 560864,
      "buildingBlockId": 38,
      "buildingBlockType": "FRAGMENT",
      "isRCV": false,
      "properties": {
        "ATTACHMENT_POINTS": "3#SubArM:1:SINGLE:0.2839%0.3907%-0.6271 "
      },
      "uniquefyingPropertyKeys": [],
      "allowedMutationTypes": [
        "DELETE",
        "EXTEND",
        "CHANGEBRANCH",
        "CHANGELINK",
        "ADDLINK",
        "DELETELINK",
        "DELETECHAIN"
      ],
      "vertexType": "MolecularFragment"
    }
  ],
  "gEdges": [
    {
      "srcAPID": 623100,
      "trgAPID": 623103,
      "bondType": "SINGLE"
    },
    {
      "srcAPID": 623102,
      "trgAPID": 623105,
      "bondType": "SINGLE"
    },
    {
      "srcAPID": 623101,
      "trgAPID": 623106,
      "bondType": "SINGLE"
    },
    {
      "srcAPID": 623104,
      "trgAPID": 623107,
      "bondType": "SINGLE"
    },
    {
      "srcAPID": 623108,
      "trgAPID": 623139,
      "bondType": "SINGLE"
    }
  ],
  "gRings": [],
  "symVertices": []
}

> <SMILES>
[Pt](C#O)(OC([H])([H])[H])([P]1(OC2=C([H])C([H])=C3C([H])=C([H])C([H])=C(C3=C2C=4C(=C(C(=C5C(=C(C(=C(C45)[H])[H])[H])[H])[H])[H])O1)[H])OC=6C([H])=C(C(=C7C6C(=C(C(=C7[H])[H])[H])[H])[H])[H])OC([H])([H])[H]

$$$$
