M00021775
  CDK     04222216303D

 44 45  0  0  0  0  0  0  0  0999 V2000
    2.3483    0.7767    0.1871 Pt  0  0  0  0  0  0  0  0  0  0  0  0
    4.3079    0.6623    0.3732 C   0  0  0  0  0  0  0  0  0  0  0  0
    5.4386    0.6015    0.5051 O   0  0  0  0  0  0  0  0  0  0  0  0
    2.7643    0.1771   -1.7360 O   0  0  0  0  0  0  0  0  0  0  0  0
    2.2319    1.0243   -2.7237 C   0  0  0  0  0  0  0  0  0  0  0  0
    2.7852    0.7955   -3.6458 H   0  0  0  0  0  0  0  0  0  0  0  0
    2.3789    2.0740   -2.4440 H   0  0  0  0  0  0  0  0  0  0  0  0
    1.1624    0.8007   -2.8620 H   0  0  0  0  0  0  0  0  0  0  0  0
    0.1081    0.9023    0.2003 P   0  0  0  0  0  0  0  0  0  0  0  0
   -0.4694    1.0743   -1.3575 O   0  0  0  0  0  0  0  0  0  0  0  0
   -2.4464   -0.3192   -1.7044 C   0  0  0  0  0  0  0  0  0  0  0  0
   -1.9137    1.0917   -1.5627 C   0  0  0  0  0  0  0  0  0  0  0  0
   -2.6468   -0.8059   -0.7409 H   0  0  0  0  0  0  0  0  0  0  0  0
   -3.3818   -0.3363   -2.2774 H   0  0  0  0  0  0  0  0  0  0  0  0
   -1.7282   -0.9606   -2.2397 H   0  0  0  0  0  0  0  0  0  0  0  0
   -1.9652    1.6514   -2.5213 H   0  0  0  0  0  0  0  0  0  0  0  0
   -2.4196    1.6746   -0.7722 H   0  0  0  0  0  0  0  0  0  0  0  0
   -0.6068    2.1913    0.9819 O   0  0  0  0  0  0  0  0  0  0  0  0
   -0.3046    4.1874   -0.3957 C   0  0  0  0  0  0  0  0  0  0  0  0
    0.0984    3.4693    0.8764 C   0  0  0  0  0  0  0  0  0  0  0  0
   -1.3962    4.2055   -0.5170 H   0  0  0  0  0  0  0  0  0  0  0  0
    0.0386    5.2309   -0.3816 H   0  0  0  0  0  0  0  0  0  0  0  0
    0.1114    3.7245   -1.3013 H   0  0  0  0  0  0  0  0  0  0  0  0
    1.1948    3.3358    0.9710 H   0  0  0  0  0  0  0  0  0  0  0  0
   -0.2827    3.9785    1.7885 H   0  0  0  0  0  0  0  0  0  0  0  0
   -1.9604    0.6967    2.2344 H   0  0  0  0  0  0  0  0  0  0  0  0
   -1.6396   -0.3147    1.9542 C   0  0  0  0  0  0  0  0  0  0  0  0
   -0.6615   -0.5439    1.0172 C   0  0  0  0  0  0  0  0  0  0  0  0
   -1.8883   -2.6993    2.2944 C   0  0  0  0  0  0  0  0  0  0  0  0
   -0.2158   -1.8598    0.6823 C   0  0  0  0  0  0  0  0  0  0  0  0
   -2.2650   -1.4153    2.6039 C   0  0  0  0  0  0  0  0  0  0  0  0
   -0.8621   -2.9517    1.3309 C   0  0  0  0  0  0  0  0  0  0  0  0
    0.8328   -2.1453   -0.2538 C   0  0  0  0  0  0  0  0  0  0  0  0
   -3.0344   -1.2195    3.3497 H   0  0  0  0  0  0  0  0  0  0  0  0
   -0.9775   -5.1154    1.5243 H   0  0  0  0  0  0  0  0  0  0  0  0
   -2.3625   -3.5507    2.7861 H   0  0  0  0  0  0  0  0  0  0  0  0
    1.1863   -3.4433   -0.5281 C   0  0  0  0  0  0  0  0  0  0  0  0
    1.3787   -1.3395   -0.7717 H   0  0  0  0  0  0  0  0  0  0  0  0
    1.9847   -3.6571   -1.2417 H   0  0  0  0  0  0  0  0  0  0  0  0
    0.5271   -4.5335    0.1109 C   0  0  0  0  0  0  0  0  0  0  0  0
    0.8342   -5.5496   -0.1331 H   0  0  0  0  0  0  0  0  0  0  0  0
   -0.4700   -4.2932    1.0203 C   0  0  0  0  0  0  0  0  0  0  0  0
    2.1404    1.2328    2.0987 C   0  0  0  0  0  0  0  0  0  0  0  0
    2.0458    1.4950    3.2206 N   0  0  0  0  0  0  0  0  0  0  0  0
  2  3  3  0  0  0  0
  1  2  1  0  0  0  0
  5  6  1  0  0  0  0
  5  7  1  0  0  0  0
  5  8  1  0  0  0  0
  4  5  1  0  0  0  0
  1  4  1  0  0  0  0
  1  9  1  0  0  0  0
  9 10  1  0  0  0  0
 11 12  1  0  0  0  0
 11 13  1  0  0  0  0
 11 14  1  0  0  0  0
 11 15  1  0  0  0  0
 12 16  1  0  0  0  0
 12 17  1  0  0  0  0
 10 12  1  0  0  0  0
  9 18  1  0  0  0  0
 19 20  1  0  0  0  0
 19 21  1  0  0  0  0
 19 22  1  0  0  0  0
 19 23  1  0  0  0  0
 20 24  1  0  0  0  0
 20 25  1  0  0  0  0
 18 20  1  0  0  0  0
 26 27  1  0  0  0  0
 27 28  1  0  0  0  0
 27 31  2  0  0  0  0
 28 30  2  0  0  0  0
 30 32  1  0  0  0  0
 29 31  1  0  0  0  0
 29 32  2  0  0  0  0
 33 30  1  0  0  0  0
 32 42  1  0  0  0  0
 33 37  2  0  0  0  0
 37 40  1  0  0  0  0
 40 42  2  0  0  0  0
 29 36  1  0  0  0  0
 31 34  1  0  0  0  0
 33 38  1  0  0  0  0
 35 42  1  0  0  0  0
 40 41  1  0  0  0  0
 37 39  1  0  0  0  0
  9 28  1  0  0  0  0
 43 44  3  0  0  0  0
  1 43  1  0  0  0  0
M  END
> <PM6_ENERGY>
-431.890

> <UID>
IQZLGGJIEMOIMB-QBJURSFLNA-N

> <FITNESS>
1.13999

> <GCODE>
23136

> <GraphENC>
23136 72_1_0,80_65_1,122_62_1,87_66_1,108799_63_1,108652_63_1,108662_39_1,583672_32_1,583697_32_1, 72_0_80_0_SINGLE_Xlig:0_Xlig:1,72_2_122_3_SINGLE_scaff:0_MPhosphonite:1,72_1_87_0_SINGLE_Xlig:0_Xlig:1,122_1_108799_0_SINGLE_LPhosphoniteSubO:0_LPhosphoniteSubO:1,122_0_108652_0_SINGLE_LPhosphoniteSubO:0_LPhosphoniteSubO:1,122_2_108662_0_SINGLE_LPhosphoniteSubR:0_SubArM:1,108799_1_583672_0_SINGLE_OPhosphoniteSub:1_SubRS:1,108652_1_583697_0_SINGLE_OPhosphoniteSub:1_SubRS:1, SymmetricSet [symIds=[108799, 108652]] SymmetricSet [symIds=[583672, 583697]] 

> <GraphJson>
{
  "graphId": 23136,
  "gVertices": [
    {
      "lstAPs": [
        {
          "id": 637484,
          "atomPositionNumber": 0,
          "atomPositionNumberInMol": 0,
          "apClass": {
            "rule": "Xlig",
            "subClass": 0,
            "bndTyp": "SINGLE"
          },
          "dirVec": {
            "x": -2.3339,
            "y": -0.0087,
            "z": 0.8172
          }
        },
        {
          "id": 637485,
          "atomPositionNumber": 0,
          "atomPositionNumberInMol": 0,
          "apClass": {
            "rule": "Xlig",
            "subClass": 0,
            "bndTyp": "SINGLE"
          },
          "dirVec": {
            "x": 2.336,
            "y": -5.0E-4,
            "z": 0.829
          }
        },
        {
          "id": 637486,
          "atomPositionNumber": 0,
          "atomPositionNumberInMol": 0,
          "apClass": {
            "rule": "scaff",
            "subClass": 0,
            "bndTyp": "SINGLE"
          },
          "dirVec": {
            "x": -0.0095,
            "y": 0.0046,
            "z": -1.7113
          }
        }
      ],
      "lstSymAPs": [
        {
          "symIds": [
            0,
            1
          ]
        }
      ],
      "mol": {
        "atoms": [
          {
            "elSymbol": "Pt",
            "p3d": {
              "x": -0.0098,
              "y": 0.0049,
              "z": 0.6289
            }
          },
          {
            "elSymbol": "C",
            "p3d": {
              "x": -6.0E-4,
              "y": 0.0016,
              "z": 2.5609
            }
          },
          {
            "elSymbol": "O",
            "p3d": {
              "x": 0.0025,
              "y": -0.0041,
              "z": 3.6974
            }
          },
          {
            "elSymbol": "Du",
            "p3d": {
              "x": -0.007,
              "y": 1.0013,
              "z": 0.6372
            }
          },
          {
            "elSymbol": "Du",
            "p3d": {
              "x": -0.0014,
              "y": 0.9902,
              "z": 2.5698
            }
          }
        ],
        "bonds": [
          {
            "atomIds": [
              1,
              2
            ],
            "bo": "TRIPLE"
          },
          {
            "atomIds": [
              0,
              1
            ],
            "bo": "SINGLE"
          },
          {
            "atomIds": [
              3,
              0
            ],
            "bo": "SINGLE"
          },
          {
            "atomIds": [
              4,
              1
            ],
            "bo": "SINGLE"
          }
        ]
      },
      "vertexId": 72,
      "buildingBlockId": 0,
      "buildingBlockType": "SCAFFOLD",
      "isRCV": false,
      "properties": {
        "ATTACHMENT_POINTS": "1#Xlig:0:SINGLE:-2.3339%-0.0087%0.8172,Xlig:0:SINGLE:2.3360%-0.0005%0.8290,scaff:0:SINGLE:-0.0095%0.0046%-1.7113 "
      },
      "uniquefyingPropertyKeys": [],
      "allowedMutationTypes": [
        "DELETE",
        "EXTEND",
        "CHANGEBRANCH",
        "CHANGELINK",
        "ADDLINK",
        "DELETELINK",
        "DELETECHAIN"
      ],
      "vertexType": "MolecularFragment"
    },
    {
      "lstAPs": [
        {
          "id": 637487,
          "atomPositionNumber": 0,
          "atomPositionNumberInMol": 5,
          "apClass": {
            "rule": "Xlig",
            "subClass": 1,
            "bndTyp": "SINGLE"
          },
          "dirVec": {
            "x": -0.1753,
            "y": 0.0948,
            "z": -0.4464
          }
        }
      ],
      "lstSymAPs": [],
      "mol": {
        "atoms": [
          {
            "elSymbol": "O",
            "p3d": {
              "x": -0.3534,
              "y": 2.1044,
              "z": -0.7339
            }
          },
          {
            "elSymbol": "C",
            "p3d": {
              "x": -0.5345,
              "y": 2.7646,
              "z": 0.4801
            }
          },
          {
            "elSymbol": "H",
            "p3d": {
              "x": -0.3728,
              "y": 3.8337,
              "z": 0.2724
            }
          },
          {
            "elSymbol": "H",
            "p3d": {
              "x": 0.1816,
              "y": 2.4161,
              "z": 1.2384
            }
          },
          {
            "elSymbol": "H",
            "p3d": {
              "x": -1.553,
              "y": 2.6149,
              "z": 0.8489
            }
          }
        ],
        "bonds": [
          {
            "atomIds": [
              1,
              2
            ],
            "bo": "SINGLE"
          },
          {
            "atomIds": [
              1,
              3
            ],
            "bo": "SINGLE"
          },
          {
            "atomIds": [
              1,
              4
            ],
            "bo": "SINGLE"
          },
          {
            "atomIds": [
              0,
              1
            ],
            "bo": "SINGLE"
          }
        ]
      },
      "vertexId": 80,
      "buildingBlockId": 64,
      "buildingBlockType": "FRAGMENT",
      "isRCV": false,
      "properties": {
        "ATTACHMENT_POINTS": "1#Xlig:1:SINGLE:-0.1753%0.0948%-0.4464 "
      },
      "uniquefyingPropertyKeys": [],
      "allowedMutationTypes": [
        "DELETE",
        "EXTEND",
        "CHANGEBRANCH",
        "CHANGELINK",
        "ADDLINK",
        "DELETELINK",
        "DELETECHAIN"
      ],
      "vertexType": "MolecularFragment"
    },
    {
      "lstAPs": [
        {
          "id": 637488,
          "atomPositionNumber": 0,
          "atomPositionNumberInMol": 10,
          "apClass": {
            "rule": "LPhosphoniteSubO",
            "subClass": 0,
            "bndTyp": "SINGLE"
          },
          "dirVec": {
            "x": 5.2814,
            "y": 0.8415,
            "z": 6.1068
          }
        },
        {
          "id": 637489,
          "atomPositionNumber": 0,
          "atomPositionNumberInMol": 10,
          "apClass": {
            "rule": "LPhosphoniteSubO",
            "subClass": 0,
            "bndTyp": "SINGLE"
          },
          "dirVec": {
            "x": 6.556,
            "y": 2.7336,
            "z": 7.2122
          }
        },
        {
          "id": 637490,
          "atomPositionNumber": 0,
          "atomPositionNumberInMol": 10,
          "apClass": {
            "rule": "LPhosphoniteSubR",
            "subClass": 0,
            "bndTyp": "SINGLE"
          },
          "dirVec": {
            "x": 4.1217,
            "y": 2.3132,
            "z": 8.1013
          }
        },
        {
          "id": 637491,
          "atomPositionNumber": 0,
          "atomPositionNumberInMol": 10,
          "apClass": {
            "rule": "MPhosphonite",
            "subClass": 1,
            "bndTyp": "SINGLE"
          },
          "dirVec": {
            "x": 4.3681,
            "y": 3.751,
            "z": 5.0597
          }
        }
      ],
      "lstSymAPs": [
        {
          "symIds": [
            0,
            1
          ]
        }
      ],
      "mol": {
        "atoms": [
          {
            "elSymbol": "P",
            "p3d": {
              "x": 5.1256,
              "y": 2.3373,
              "z": 6.5981
            }
          }
        ],
        "bonds": []
      },
      "vertexId": 122,
      "buildingBlockId": 61,
      "buildingBlockType": "FRAGMENT",
      "isRCV": false,
      "properties": {
        "ATTACHMENT_POINTS": "1#LPhosphoniteSubO:0:SINGLE:5.2814%0.8415%6.1068,LPhosphoniteSubO:0:SINGLE:6.5560%2.7336%7.2122,LPhosphoniteSubR:0:SINGLE:4.1217%2.3132%8.1013,MPhosphonite:1:SINGLE:4.3681%3.7510%5.0597 "
      },
      "uniquefyingPropertyKeys": [],
      "allowedMutationTypes": [
        "DELETE",
        "EXTEND",
        "CHANGEBRANCH",
        "CHANGELINK",
        "ADDLINK",
        "DELETELINK",
        "DELETECHAIN"
      ],
      "vertexType": "MolecularFragment"
    },
    {
      "lstAPs": [
        {
          "id": 637492,
          "atomPositionNumber": 0,
          "atomPositionNumberInMol": 44,
          "apClass": {
            "rule": "Xlig",
            "subClass": 1,
            "bndTyp": "SINGLE"
          },
          "dirVec": {
            "x": 0.0192,
            "y": -0.0048,
            "z": -0.5645
          }
        }
      ],
      "lstSymAPs": [],
      "mol": {
        "atoms": [
          {
            "elSymbol": "C",
            "p3d": {
              "x": -1.967,
              "y": -0.0075,
              "z": -0.4937
            }
          },
          {
            "elSymbol": "N",
            "p3d": {
              "x": -3.1263,
              "y": -0.0054,
              "z": -0.4354
            }
          },
          {
            "elSymbol": "Du",
            "p3d": {
              "x": -1.9744,
              "y": 0.9926,
              "z": -0.5036
            }
          }
        ],
        "bonds": [
          {
            "atomIds": [
              0,
              1
            ],
            "bo": "TRIPLE"
          },
          {
            "atomIds": [
              2,
              0
            ],
            "bo": "SINGLE"
          }
        ]
      },
      "vertexId": 87,
      "buildingBlockId": 65,
      "buildingBlockType": "FRAGMENT",
      "isRCV": false,
      "properties": {
        "ATTACHMENT_POINTS": "1#Xlig:1:SINGLE:0.0192%-0.0048%-0.5645 "
      },
      "uniquefyingPropertyKeys": [],
      "allowedMutationTypes": [
        "DELETE",
        "EXTEND",
        "CHANGEBRANCH",
        "CHANGELINK",
        "ADDLINK",
        "DELETELINK",
        "DELETECHAIN"
      ],
      "vertexType": "MolecularFragment"
    },
    {
      "lstAPs": [
        {
          "id": 637493,
          "atomPositionNumber": 0,
          "atomPositionNumberInMol": 11,
          "apClass": {
            "rule": "LPhosphoniteSubO",
            "subClass": 1,
            "bndTyp": "SINGLE"
          },
          "dirVec": {
            "x": 5.1317,
            "y": 2.3382,
            "z": 6.5862
          }
        },
        {
          "id": 637494,
          "atomPositionNumber": 0,
          "atomPositionNumberInMol": 11,
          "apClass": {
            "rule": "OPhosphoniteSub",
            "subClass": 1,
            "bndTyp": "SINGLE"
          },
          "dirVec": {
            "x": 7.6537,
            "y": 3.0103,
            "z": 6.3233
          }
        }
      ],
      "lstSymAPs": [],
      "mol": {
        "atoms": [
          {
            "elSymbol": "O",
            "p3d": {
              "x": 6.5544,
              "y": 2.7286,
              "z": 7.2144
            }
          }
        ],
        "bonds": []
      },
      "vertexId": 108799,
      "buildingBlockId": 62,
      "buildingBlockType": "FRAGMENT",
      "isRCV": false,
      "properties": {
        "ATTACHMENT_POINTS": "1#LPhosphoniteSubO:1:SINGLE:5.1317%2.3382%6.5862,OPhosphoniteSub:1:SINGLE:7.6537%3.0103%6.3233 "
      },
      "uniquefyingPropertyKeys": [],
      "allowedMutationTypes": [
        "DELETE",
        "EXTEND",
        "CHANGEBRANCH",
        "CHANGELINK",
        "ADDLINK",
        "DELETELINK",
        "DELETECHAIN"
      ],
      "vertexType": "MolecularFragment"
    },
    {
      "lstAPs": [
        {
          "id": 637495,
          "atomPositionNumber": 0,
          "atomPositionNumberInMol": 19,
          "apClass": {
            "rule": "LPhosphoniteSubO",
            "subClass": 1,
            "bndTyp": "SINGLE"
          },
          "dirVec": {
            "x": 5.1317,
            "y": 2.3382,
            "z": 6.5862
          }
        },
        {
          "id": 637496,
          "atomPositionNumber": 0,
          "atomPositionNumberInMol": 19,
          "apClass": {
            "rule": "OPhosphoniteSub",
            "subClass": 1,
            "bndTyp": "SINGLE"
          },
          "dirVec": {
            "x": 7.6537,
            "y": 3.0103,
            "z": 6.3233
          }
        }
      ],
      "lstSymAPs": [],
      "mol": {
        "atoms": [
          {
            "elSymbol": "O",
            "p3d": {
              "x": 6.5544,
              "y": 2.7286,
              "z": 7.2144
            }
          }
        ],
        "bonds": []
      },
      "vertexId": 108652,
      "buildingBlockId": 62,
      "buildingBlockType": "FRAGMENT",
      "isRCV": false,
      "properties": {
        "ATTACHMENT_POINTS": "1#LPhosphoniteSubO:1:SINGLE:5.1317%2.3382%6.5862,OPhosphoniteSub:1:SINGLE:7.6537%3.0103%6.3233 "
      },
      "uniquefyingPropertyKeys": [],
      "allowedMutationTypes": [
        "DELETE",
        "EXTEND",
        "CHANGEBRANCH",
        "CHANGELINK",
        "ADDLINK",
        "DELETELINK",
        "DELETECHAIN"
      ],
      "vertexType": "MolecularFragment"
    },
    {
      "lstAPs": [
        {
          "id": 637497,
          "atomPositionNumber": 2,
          "atomPositionNumberInMol": 29,
          "apClass": {
            "rule": "SubArM",
            "subClass": 1,
            "bndTyp": "SINGLE"
          },
          "dirVec": {
            "x": 0.2839,
            "y": 0.3907,
            "z": -0.6271
          }
        }
      ],
      "lstSymAPs": [],
      "mol": {
        "atoms": [
          {
            "elSymbol": "H",
            "p3d": {
              "x": 1.8079,
              "y": 2.6521,
              "z": -0.6457
            }
          },
          {
            "elSymbol": "C",
            "p3d": {
              "x": 2.3292,
              "y": 1.8028,
              "z": -1.1346
            }
          },
          {
            "elSymbol": "C",
            "p3d": {
              "x": 1.6928,
              "y": 0.5701,
              "z": -1.2214
            }
          },
          {
            "elSymbol": "C",
            "p3d": {
              "x": 4.26,
              "y": 0.9161,
              "z": -2.2564
            }
          },
          {
            "elSymbol": "C",
            "p3d": {
              "x": 2.3547,
              "y": -0.5116,
              "z": -1.8205
            }
          },
          {
            "elSymbol": "C",
            "p3d": {
              "x": 3.6118,
              "y": 1.9867,
              "z": -1.654
            }
          },
          {
            "elSymbol": "C",
            "p3d": {
              "x": 3.6519,
              "y": -0.333,
              "z": -2.339
            }
          },
          {
            "elSymbol": "C",
            "p3d": {
              "x": 1.7318,
              "y": -1.7781,
              "z": -1.8989
            }
          },
          {
            "elSymbol": "H",
            "p3d": {
              "x": 4.0936,
              "y": 2.9609,
              "z": -1.5808
            }
          },
          {
            "elSymbol": "H",
            "p3d": {
              "x": 5.3077,
              "y": -1.3005,
              "z": -3.3639
            }
          },
          {
            "elSymbol": "H",
            "p3d": {
              "x": 5.2705,
              "y": 1.0583,
              "z": -2.6578
            }
          },
          {
            "elSymbol": "C",
            "p3d": {
              "x": 2.3998,
              "y": -2.8526,
              "z": -2.5007
            }
          },
          {
            "elSymbol": "H",
            "p3d": {
              "x": 0.724,
              "y": -1.9306,
              "z": -1.4908
            }
          },
          {
            "elSymbol": "H",
            "p3d": {
              "x": 1.9155,
              "y": -3.8304,
              "z": -2.576
            }
          },
          {
            "elSymbol": "C",
            "p3d": {
              "x": 3.684,
              "y": -2.6697,
              "z": -3.0355
            }
          },
          {
            "elSymbol": "H",
            "p3d": {
              "x": 4.2028,
              "y": -3.5195,
              "z": -3.4955
            }
          },
          {
            "elSymbol": "C",
            "p3d": {
              "x": 4.3092,
              "y": -1.4197,
              "z": -2.9387
            }
          }
        ],
        "bonds": [
          {
            "atomIds": [
              0,
              1
            ],
            "bo": "SINGLE"
          },
          {
            "atomIds": [
              1,
              2
            ],
            "bo": "SINGLE"
          },
          {
            "atomIds": [
              1,
              5
            ],
            "bo": "DOUBLE"
          },
          {
            "atomIds": [
              2,
              4
            ],
            "bo": "DOUBLE"
          },
          {
            "atomIds": [
              4,
              6
            ],
            "bo": "SINGLE"
          },
          {
            "atomIds": [
              3,
              5
            ],
            "bo": "SINGLE"
          },
          {
            "atomIds": [
              3,
              6
            ],
            "bo": "DOUBLE"
          },
          {
            "atomIds": [
              7,
              4
            ],
            "bo": "SINGLE"
          },
          {
            "atomIds": [
              6,
              16
            ],
            "bo": "SINGLE"
          },
          {
            "atomIds": [
              7,
              11
            ],
            "bo": "DOUBLE"
          },
          {
            "atomIds": [
              11,
              14
            ],
            "bo": "SINGLE"
          },
          {
            "atomIds": [
              14,
              16
            ],
            "bo": "DOUBLE"
          },
          {
            "atomIds": [
              3,
              10
            ],
            "bo": "SINGLE"
          },
          {
            "atomIds": [
              5,
              8
            ],
            "bo": "SINGLE"
          },
          {
            "atomIds": [
              7,
              12
            ],
            "bo": "SINGLE"
          },
          {
            "atomIds": [
              9,
              16
            ],
            "bo": "SINGLE"
          },
          {
            "atomIds": [
              14,
              15
            ],
            "bo": "SINGLE"
          },
          {
            "atomIds": [
              11,
              13
            ],
            "bo": "SINGLE"
          }
        ]
      },
      "vertexId": 108662,
      "buildingBlockId": 38,
      "buildingBlockType": "FRAGMENT",
      "isRCV": false,
      "properties": {
        "ATTACHMENT_POINTS": "3#SubArM:1:SINGLE:0.2839%0.3907%-0.6271 "
      },
      "uniquefyingPropertyKeys": [],
      "allowedMutationTypes": [
        "DELETE",
        "EXTEND",
        "CHANGEBRANCH",
        "CHANGELINK",
        "ADDLINK",
        "DELETELINK",
        "DELETECHAIN"
      ],
      "vertexType": "MolecularFragment"
    },
    {
      "lstAPs": [
        {
          "id": 637546,
          "atomPositionNumber": 1,
          "atomPositionNumberInMol": 13,
          "apClass": {
            "rule": "SubRS",
            "subClass": 1,
            "bndTyp": "SINGLE"
          },
          "dirVec": {
            "x": 0.2985,
            "y": 0.384,
            "z": -0.6258
          }
        }
      ],
      "lstSymAPs": [],
      "mol": {
        "atoms": [
          {
            "elSymbol": "C",
            "p3d": {
              "x": -1.0244,
              "y": -0.2225,
              "z": 1.3991
            }
          },
          {
            "elSymbol": "C",
            "p3d": {
              "x": 0.3973,
              "y": -0.042,
              "z": 0.8195
            }
          },
          {
            "elSymbol": "H",
            "p3d": {
              "x": -1.5635,
              "y": -0.9908,
              "z": 0.8263
            }
          },
          {
            "elSymbol": "H",
            "p3d": {
              "x": -0.941,
              "y": -0.535,
              "z": 2.446
            }
          },
          {
            "elSymbol": "H",
            "p3d": {
              "x": -1.5586,
              "y": 0.7335,
              "z": 1.3382
            }
          },
          {
            "elSymbol": "H",
            "p3d": {
              "x": 0.9335,
              "y": 0.7221,
              "z": 1.4011
            }
          },
          {
            "elSymbol": "H",
            "p3d": {
              "x": 0.927,
              "y": -1.0102,
              "z": 0.9001
            }
          }
        ],
        "bonds": [
          {
            "atomIds": [
              0,
              1
            ],
            "bo": "SINGLE"
          },
          {
            "atomIds": [
              0,
              2
            ],
            "bo": "SINGLE"
          },
          {
            "atomIds": [
              0,
              3
            ],
            "bo": "SINGLE"
          },
          {
            "atomIds": [
              0,
              4
            ],
            "bo": "SINGLE"
          },
          {
            "atomIds": [
              1,
              5
            ],
            "bo": "SINGLE"
          },
          {
            "atomIds": [
              1,
              6
            ],
            "bo": "SINGLE"
          }
        ]
      },
      "vertexId": 583672,
      "buildingBlockId": 31,
      "buildingBlockType": "FRAGMENT",
      "isRCV": false,
      "properties": {
        "ATTACHMENT_POINTS": "2#SubRS:1:SINGLE:0.2985%0.3840%-0.6258 "
      },
      "uniquefyingPropertyKeys": [],
      "allowedMutationTypes": [
        "DELETE",
        "EXTEND",
        "CHANGEBRANCH",
        "CHANGELINK",
        "ADDLINK",
        "DELETELINK",
        "DELETECHAIN"
      ],
      "vertexType": "MolecularFragment"
    },
    {
      "lstAPs": [
        {
          "id": 637547,
          "atomPositionNumber": 1,
          "atomPositionNumberInMol": 21,
          "apClass": {
            "rule": "SubRS",
            "subClass": 1,
            "bndTyp": "SINGLE"
          },
          "dirVec": {
            "x": 0.2985,
            "y": 0.384,
            "z": -0.6258
          }
        }
      ],
      "lstSymAPs": [],
      "mol": {
        "atoms": [
          {
            "elSymbol": "C",
            "p3d": {
              "x": -1.0244,
              "y": -0.2225,
              "z": 1.3991
            }
          },
          {
            "elSymbol": "C",
            "p3d": {
              "x": 0.3973,
              "y": -0.042,
              "z": 0.8195
            }
          },
          {
            "elSymbol": "H",
            "p3d": {
              "x": -1.5635,
              "y": -0.9908,
              "z": 0.8263
            }
          },
          {
            "elSymbol": "H",
            "p3d": {
              "x": -0.941,
              "y": -0.535,
              "z": 2.446
            }
          },
          {
            "elSymbol": "H",
            "p3d": {
              "x": -1.5586,
              "y": 0.7335,
              "z": 1.3382
            }
          },
          {
            "elSymbol": "H",
            "p3d": {
              "x": 0.9335,
              "y": 0.7221,
              "z": 1.4011
            }
          },
          {
            "elSymbol": "H",
            "p3d": {
              "x": 0.927,
              "y": -1.0102,
              "z": 0.9001
            }
          }
        ],
        "bonds": [
          {
            "atomIds": [
              0,
              1
            ],
            "bo": "SINGLE"
          },
          {
            "atomIds": [
              0,
              2
            ],
            "bo": "SINGLE"
          },
          {
            "atomIds": [
              0,
              3
            ],
            "bo": "SINGLE"
          },
          {
            "atomIds": [
              0,
              4
            ],
            "bo": "SINGLE"
          },
          {
            "atomIds": [
              1,
              5
            ],
            "bo": "SINGLE"
          },
          {
            "atomIds": [
              1,
              6
            ],
            "bo": "SINGLE"
          }
        ]
      },
      "vertexId": 583697,
      "buildingBlockId": 31,
      "buildingBlockType": "FRAGMENT",
      "isRCV": false,
      "properties": {
        "ATTACHMENT_POINTS": "2#SubRS:1:SINGLE:0.2985%0.3840%-0.6258 "
      },
      "uniquefyingPropertyKeys": [],
      "allowedMutationTypes": [
        "DELETE",
        "EXTEND",
        "CHANGEBRANCH",
        "CHANGELINK",
        "ADDLINK",
        "DELETELINK",
        "DELETECHAIN"
      ],
      "vertexType": "MolecularFragment"
    }
  ],
  "gEdges": [
    {
      "srcAPID": 637484,
      "trgAPID": 637487,
      "bondType": "SINGLE"
    },
    {
      "srcAPID": 637486,
      "trgAPID": 637491,
      "bondType": "SINGLE"
    },
    {
      "srcAPID": 637485,
      "trgAPID": 637492,
      "bondType": "SINGLE"
    },
    {
      "srcAPID": 637489,
      "trgAPID": 637493,
      "bondType": "SINGLE"
    },
    {
      "srcAPID": 637488,
      "trgAPID": 637495,
      "bondType": "SINGLE"
    },
    {
      "srcAPID": 637490,
      "trgAPID": 637497,
      "bondType": "SINGLE"
    },
    {
      "srcAPID": 637494,
      "trgAPID": 637546,
      "bondType": "SINGLE"
    },
    {
      "srcAPID": 637496,
      "trgAPID": 637547,
      "bondType": "SINGLE"
    }
  ],
  "gRings": [],
  "symVertices": [
    {
      "symIds": [
        108799,
        108652
      ]
    },
    {
      "symIds": [
        583672,
        583697
      ]
    }
  ]
}

> <SMILES>
[Pt](C#O)(OC([H])([H])[H])([P](OC(C([H])([H])[H])([H])[H])(OC(C([H])([H])[H])([H])[H])C=1C([H])=C(C(=C2C1C(=C(C(=C2[H])[H])[H])[H])[H])[H])C#N

$$$$
