M00001219
  CDK     04222209053D

 40 41  0  0  0  0  0  0  0  0999 V2000
   -2.1723    0.0261   -0.2873 Pt  0  0  0  0  0  0  0  0  0  0  0  0
   -4.1229    0.0538   -0.2535 C   0  0  0  0  0  0  0  0  0  0  0  0
   -5.2641    0.0703   -0.2241 O   0  0  0  0  0  0  0  0  0  0  0  0
   -2.3558    2.3634   -0.3634 S   0  0  0  0  0  0  0  0  0  0  0  0
   -2.3589    2.4753   -2.1771 C   0  0  0  0  0  0  0  0  0  0  0  0
   -3.2358    3.0464   -2.5046 H   0  0  0  0  0  0  0  0  0  0  0  0
   -2.3998    1.4794   -2.6332 H   0  0  0  0  0  0  0  0  0  0  0  0
   -1.4621    2.9967   -2.5243 H   0  0  0  0  0  0  0  0  0  0  0  0
    0.1137   -0.0057   -0.3116 P   0  0  0  0  0  0  0  0  0  0  0  0
    0.8815   -1.4338    0.6479 C   0  0  0  0  0  0  0  0  0  0  0  0
    0.5357   -2.4163    0.2326 H   0  0  0  0  0  0  0  0  0  0  0  0
    2.4032   -1.3352    0.5133 C   0  0  0  0  0  0  0  0  0  0  0  0
    2.7081   -1.5438   -0.5336 H   0  0  0  0  0  0  0  0  0  0  0  0
    2.8519   -2.1667    1.1025 H   0  0  0  0  0  0  0  0  0  0  0  0
    3.0529   -0.0253    0.9888 C   0  0  0  0  0  0  0  0  0  0  0  0
    4.1258   -0.0438    0.7114 H   0  0  0  0  0  0  0  0  0  0  0  0
    3.0329   -0.0085    2.1042 H   0  0  0  0  0  0  0  0  0  0  0  0
    2.4381    1.2866    0.4743 C   0  0  0  0  0  0  0  0  0  0  0  0
    2.9089    2.1230    1.0387 H   0  0  0  0  0  0  0  0  0  0  0  0
    2.7481    1.4558   -0.5782 H   0  0  0  0  0  0  0  0  0  0  0  0
    0.9197    1.4297    0.6049 C   0  0  0  0  0  0  0  0  0  0  0  0
    0.6001    2.4080    0.1601 H   0  0  0  0  0  0  0  0  0  0  0  0
    0.3557    1.3315    2.0291 C   0  0  0  0  0  0  0  0  0  0  0  0
   -0.7470    1.5057    2.0121 H   0  0  0  0  0  0  0  0  0  0  0  0
    0.7568    2.1829    2.6210 H   0  0  0  0  0  0  0  0  0  0  0  0
    0.6562    0.0338    2.7968 C   0  0  0  0  0  0  0  0  0  0  0  0
    1.7322    0.0240    3.0836 H   0  0  0  0  0  0  0  0  0  0  0  0
    0.0941    0.0555    3.7530 H   0  0  0  0  0  0  0  0  0  0  0  0
    0.3214   -1.2782    2.0684 C   0  0  0  0  0  0  0  0  0  0  0  0
    0.7008   -2.1216    2.6856 H   0  0  0  0  0  0  0  0  0  0  0  0
   -0.7854   -1.4241    2.0567 H   0  0  0  0  0  0  0  0  0  0  0  0
    0.6905   -0.0401   -2.0909 C   0  0  0  0  0  0  0  0  0  0  0  0
    0.3003   -0.9276   -2.6116 H   0  0  0  0  0  0  0  0  0  0  0  0
    1.7848   -0.0590   -2.1711 H   0  0  0  0  0  0  0  0  0  0  0  0
    0.3291    0.8447   -2.6364 H   0  0  0  0  0  0  0  0  0  0  0  0
   -2.4211   -2.3063   -0.2845 S   0  0  0  0  0  0  0  0  0  0  0  0
   -2.4238   -2.4804   -2.0933 C   0  0  0  0  0  0  0  0  0  0  0  0
   -1.5392   -3.0345   -2.4203 H   0  0  0  0  0  0  0  0  0  0  0  0
   -2.4405   -1.5002   -2.5834 H   0  0  0  0  0  0  0  0  0  0  0  0
   -3.3137   -3.0415   -2.4029 H   0  0  0  0  0  0  0  0  0  0  0  0
  2  3  3  0  0  0  0
  1  2  1  0  0  0  0
  5  6  1  0  0  0  0
  5  7  1  0  0  0  0
  5  8  1  0  0  0  0
  4  5  1  0  0  0  0
  1  4  1  0  0  0  0
 10  9  1  0  0  0  0
 10 11  1  0  0  0  0
 12 10  1  0  0  0  0
 13 12  1  0  0  0  0
 14 12  1  0  0  0  0
 15 12  1  0  0  0  0
 16 15  1  0  0  0  0
 17 15  1  0  0  0  0
 18 15  1  0  0  0  0
 18 21  1  0  0  0  0
 19 18  1  0  0  0  0
 20 18  1  0  0  0  0
 21  9  1  0  0  0  0
 21 22  1  0  0  0  0
 23 21  1  0  0  0  0
 24 23  1  0  0  0  0
 25 23  1  0  0  0  0
 26 23  1  0  0  0  0
 26 29  1  0  0  0  0
 27 26  1  0  0  0  0
 28 26  1  0  0  0  0
 29 10  1  0  0  0  0
 30 29  1  0  0  0  0
 31 29  1  0  0  0  0
  1  9  1  0  0  0  0
 33 32  1  0  0  0  0
 34 32  1  0  0  0  0
 35 32  1  0  0  0  0
  9 32  1  0  0  0  0
 37 38  1  0  0  0  0
 37 39  1  0  0  0  0
 37 40  1  0  0  0  0
 36 37  1  0  0  0  0
  1 36  1  0  0  0  0
M  END
> <PM6_ENERGY>
-283.271

> <UID>
NNQFUJHDMLZXOL-NVPSKTMJNA-L

> <FITNESS>
1.1417

> <GCODE>
1820

> <GraphENC>
1820 72_1_0,79_64_1,102_40_1,85_64_1,32331_2_2, 72_0_79_0_SINGLE_Xlig:0_Xlig:1,72_2_102_1_SINGLE_scaff:0_MPhosphine:1,72_1_85_0_SINGLE_Xlig:0_Xlig:1,102_0_32331_0_SINGLE_LPhosphineSubM:0_me:1, 

> <GraphJson>
{
  "graphId": 1820,
  "gVertices": [
    {
      "lstAPs": [
        {
          "id": 43819,
          "atomPositionNumber": 0,
          "atomPositionNumberInMol": 0,
          "apClass": {
            "rule": "Xlig",
            "subClass": 0,
            "bndTyp": "SINGLE"
          },
          "dirVec": {
            "x": -2.3339,
            "y": -0.0087,
            "z": 0.8172
          }
        },
        {
          "id": 43820,
          "atomPositionNumber": 0,
          "atomPositionNumberInMol": 0,
          "apClass": {
            "rule": "Xlig",
            "subClass": 0,
            "bndTyp": "SINGLE"
          },
          "dirVec": {
            "x": 2.336,
            "y": -5.0E-4,
            "z": 0.829
          }
        },
        {
          "id": 43821,
          "atomPositionNumber": 0,
          "atomPositionNumberInMol": 0,
          "apClass": {
            "rule": "scaff",
            "subClass": 0,
            "bndTyp": "SINGLE"
          },
          "dirVec": {
            "x": -0.0095,
            "y": 0.0046,
            "z": -1.7113
          }
        }
      ],
      "lstSymAPs": [
        {
          "symIds": [
            0,
            1
          ]
        }
      ],
      "mol": {
        "atoms": [
          {
            "elSymbol": "Pt",
            "p3d": {
              "x": -0.0098,
              "y": 0.0049,
              "z": 0.6289
            }
          },
          {
            "elSymbol": "C",
            "p3d": {
              "x": -6.0E-4,
              "y": 0.0016,
              "z": 2.5609
            }
          },
          {
            "elSymbol": "O",
            "p3d": {
              "x": 0.0025,
              "y": -0.0041,
              "z": 3.6974
            }
          },
          {
            "elSymbol": "Du",
            "p3d": {
              "x": -0.007,
              "y": 1.0013,
              "z": 0.6372
            }
          },
          {
            "elSymbol": "Du",
            "p3d": {
              "x": -0.0014,
              "y": 0.9902,
              "z": 2.5698
            }
          }
        ],
        "bonds": [
          {
            "atomIds": [
              1,
              2
            ],
            "bo": "TRIPLE"
          },
          {
            "atomIds": [
              0,
              1
            ],
            "bo": "SINGLE"
          },
          {
            "atomIds": [
              3,
              0
            ],
            "bo": "SINGLE"
          },
          {
            "atomIds": [
              4,
              1
            ],
            "bo": "SINGLE"
          }
        ]
      },
      "vertexId": 72,
      "buildingBlockId": 0,
      "buildingBlockType": "SCAFFOLD",
      "isRCV": false,
      "properties": {
        "ATTACHMENT_POINTS": "1#Xlig:0:SINGLE:-2.3339%-0.0087%0.8172,Xlig:0:SINGLE:2.3360%-0.0005%0.8290,scaff:0:SINGLE:-0.0095%0.0046%-1.7113 "
      },
      "uniquefyingPropertyKeys": [],
      "allowedMutationTypes": [
        "DELETE",
        "EXTEND",
        "CHANGEBRANCH",
        "CHANGELINK",
        "ADDLINK",
        "DELETELINK",
        "DELETECHAIN"
      ],
      "vertexType": "MolecularFragment"
    },
    {
      "lstAPs": [
        {
          "id": 43822,
          "atomPositionNumber": 0,
          "atomPositionNumberInMol": 5,
          "apClass": {
            "rule": "Xlig",
            "subClass": 1,
            "bndTyp": "SINGLE"
          },
          "dirVec": {
            "x": -0.102,
            "y": 0.0185,
            "z": -1.0265
          }
        }
      ],
      "lstSymAPs": [],
      "mol": {
        "atoms": [
          {
            "elSymbol": "S",
            "p3d": {
              "x": -0.3267,
              "y": 2.3403,
              "z": -1.0022
            }
          },
          {
            "elSymbol": "C",
            "p3d": {
              "x": -0.626,
              "y": 2.4866,
              "z": 0.7805
            }
          },
          {
            "elSymbol": "H",
            "p3d": {
              "x": 0.1766,
              "y": 3.089,
              "z": 1.2414
            }
          },
          {
            "elSymbol": "H",
            "p3d": {
              "x": -0.651,
              "y": 1.5065,
              "z": 1.2643
            }
          },
          {
            "elSymbol": "H",
            "p3d": {
              "x": -1.5658,
              "y": 2.981,
              "z": 0.9515
            }
          }
        ],
        "bonds": [
          {
            "atomIds": [
              1,
              2
            ],
            "bo": "SINGLE"
          },
          {
            "atomIds": [
              1,
              3
            ],
            "bo": "SINGLE"
          },
          {
            "atomIds": [
              1,
              4
            ],
            "bo": "SINGLE"
          },
          {
            "atomIds": [
              0,
              1
            ],
            "bo": "SINGLE"
          }
        ]
      },
      "vertexId": 79,
      "buildingBlockId": 63,
      "buildingBlockType": "FRAGMENT",
      "isRCV": false,
      "properties": {
        "ATTACHMENT_POINTS": "1#Xlig:1:SINGLE:-0.1020%0.0185%-1.0265 "
      },
      "uniquefyingPropertyKeys": [],
      "allowedMutationTypes": [
        "DELETE",
        "EXTEND",
        "CHANGEBRANCH",
        "CHANGELINK",
        "ADDLINK",
        "DELETELINK",
        "DELETECHAIN"
      ],
      "vertexType": "MolecularFragment"
    },
    {
      "lstAPs": [
        {
          "id": 43823,
          "atomPositionNumber": 0,
          "atomPositionNumberInMol": 10,
          "apClass": {
            "rule": "LPhosphineSubM",
            "subClass": 0,
            "bndTyp": "SINGLE"
          },
          "dirVec": {
            "x": 7.9272,
            "y": -2.5174,
            "z": 6.3831
          }
        },
        {
          "id": 43824,
          "atomPositionNumber": 0,
          "atomPositionNumberInMol": 10,
          "apClass": {
            "rule": "MPhosphine",
            "subClass": 1,
            "bndTyp": "SINGLE"
          },
          "dirVec": {
            "x": 5.3681,
            "y": -0.8345,
            "z": 7.9017
          }
        }
      ],
      "lstSymAPs": [],
      "mol": {
        "atoms": [
          {
            "elSymbol": "P",
            "p3d": {
              "x": 6.9938,
              "y": -2.3142,
              "z": 7.9569
            }
          },
          {
            "elSymbol": "C",
            "p3d": {
              "x": 6.4789,
              "y": -4.0179,
              "z": 8.4779
            }
          },
          {
            "elSymbol": "H",
            "p3d": {
              "x": 5.6991,
              "y": -4.3449,
              "z": 7.7903
            }
          },
          {
            "elSymbol": "C",
            "p3d": {
              "x": 7.6308,
              "y": -5.0175,
              "z": 8.3775
            }
          },
          {
            "elSymbol": "H",
            "p3d": {
              "x": 7.9355,
              "y": -5.0968,
              "z": 7.3495
            }
          },
          {
            "elSymbol": "H",
            "p3d": {
              "x": 7.2741,
              "y": -5.9875,
              "z": 8.7015
            }
          },
          {
            "elSymbol": "C",
            "p3d": {
              "x": 8.8837,
              "y": -4.6364,
              "z": 9.2304
            }
          },
          {
            "elSymbol": "H",
            "p3d": {
              "x": 9.6989,
              "y": -5.3031,
              "z": 8.9301
            }
          },
          {
            "elSymbol": "H",
            "p3d": {
              "x": 8.6577,
              "y": -4.8647,
              "z": 10.2633
            }
          },
          {
            "elSymbol": "C",
            "p3d": {
              "x": 9.3638,
              "y": -3.1969,
              "z": 9.1272
            }
          },
          {
            "elSymbol": "H",
            "p3d": {
              "x": 10.1041,
              "y": -3.0308,
              "z": 9.9217
            }
          },
          {
            "elSymbol": "H",
            "p3d": {
              "x": 9.884,
              "y": -3.0664,
              "z": 8.1855
            }
          },
          {
            "elSymbol": "C",
            "p3d": {
              "x": 8.2791,
              "y": -2.1163,
              "z": 9.2588
            }
          },
          {
            "elSymbol": "H",
            "p3d": {
              "x": 8.7569,
              "y": -1.1402,
              "z": 9.1018
            }
          },
          {
            "elSymbol": "C",
            "p3d": {
              "x": 7.5764,
              "y": -2.0735,
              "z": 10.6271
            }
          },
          {
            "elSymbol": "H",
            "p3d": {
              "x": 6.9371,
              "y": -1.1906,
              "z": 10.6604
            }
          },
          {
            "elSymbol": "H",
            "p3d": {
              "x": 8.3398,
              "y": -1.9598,
              "z": 11.4008
            }
          },
          {
            "elSymbol": "C",
            "p3d": {
              "x": 6.717,
              "y": -3.3005,
              "z": 10.9996
            }
          },
          {
            "elSymbol": "H",
            "p3d": {
              "x": 7.3706,
              "y": -4.0717,
              "z": 11.3581
            }
          },
          {
            "elSymbol": "H",
            "p3d": {
              "x": 6.058,
              "y": -3.0039,
              "z": 11.8074
            }
          },
          {
            "elSymbol": "C",
            "p3d": {
              "x": 5.8297,
              "y": -3.8969,
              "z": 9.8822
            }
          },
          {
            "elSymbol": "H",
            "p3d": {
              "x": 5.5463,
              "y": -4.9079,
              "z": 10.192
            }
          },
          {
            "elSymbol": "H",
            "p3d": {
              "x": 4.9376,
              "y": -3.3154,
              "z": 9.8051
            }
          }
        ],
        "bonds": [
          {
            "atomIds": [
              1,
              0
            ],
            "bo": "SINGLE"
          },
          {
            "atomIds": [
              1,
              2
            ],
            "bo": "SINGLE"
          },
          {
            "atomIds": [
              3,
              1
            ],
            "bo": "SINGLE"
          },
          {
            "atomIds": [
              4,
              3
            ],
            "bo": "SINGLE"
          },
          {
            "atomIds": [
              5,
              3
            ],
            "bo": "SINGLE"
          },
          {
            "atomIds": [
              6,
              3
            ],
            "bo": "SINGLE"
          },
          {
            "atomIds": [
              7,
              6
            ],
            "bo": "SINGLE"
          },
          {
            "atomIds": [
              8,
              6
            ],
            "bo": "SINGLE"
          },
          {
            "atomIds": [
              9,
              6
            ],
            "bo": "SINGLE"
          },
          {
            "atomIds": [
              9,
              12
            ],
            "bo": "SINGLE"
          },
          {
            "atomIds": [
              10,
              9
            ],
            "bo": "SINGLE"
          },
          {
            "atomIds": [
              11,
              9
            ],
            "bo": "SINGLE"
          },
          {
            "atomIds": [
              12,
              0
            ],
            "bo": "SINGLE"
          },
          {
            "atomIds": [
              12,
              13
            ],
            "bo": "SINGLE"
          },
          {
            "atomIds": [
              14,
              12
            ],
            "bo": "SINGLE"
          },
          {
            "atomIds": [
              15,
              14
            ],
            "bo": "SINGLE"
          },
          {
            "atomIds": [
              16,
              14
            ],
            "bo": "SINGLE"
          },
          {
            "atomIds": [
              17,
              14
            ],
            "bo": "SINGLE"
          },
          {
            "atomIds": [
              17,
              20
            ],
            "bo": "SINGLE"
          },
          {
            "atomIds": [
              18,
              17
            ],
            "bo": "SINGLE"
          },
          {
            "atomIds": [
              19,
              17
            ],
            "bo": "SINGLE"
          },
          {
            "atomIds": [
              20,
              1
            ],
            "bo": "SINGLE"
          },
          {
            "atomIds": [
              21,
              20
            ],
            "bo": "SINGLE"
          },
          {
            "atomIds": [
              22,
              20
            ],
            "bo": "SINGLE"
          }
        ]
      },
      "vertexId": 102,
      "buildingBlockId": 39,
      "buildingBlockType": "FRAGMENT",
      "isRCV": false,
      "properties": {
        "ATTACHMENT_POINTS": "1#LPhosphineSubM:0:SINGLE:7.9272%-2.5174%6.3831,MPhosphine:1:SINGLE:5.3681%-0.8345%7.9017 "
      },
      "uniquefyingPropertyKeys": [],
      "allowedMutationTypes": [
        "DELETE",
        "EXTEND",
        "CHANGEBRANCH",
        "CHANGELINK",
        "ADDLINK",
        "DELETELINK",
        "DELETECHAIN"
      ],
      "vertexType": "MolecularFragment"
    },
    {
      "lstAPs": [
        {
          "id": 43825,
          "atomPositionNumber": 0,
          "atomPositionNumberInMol": 37,
          "apClass": {
            "rule": "Xlig",
            "subClass": 1,
            "bndTyp": "SINGLE"
          },
          "dirVec": {
            "x": -0.102,
            "y": 0.0185,
            "z": -1.0265
          }
        }
      ],
      "lstSymAPs": [],
      "mol": {
        "atoms": [
          {
            "elSymbol": "S",
            "p3d": {
              "x": -0.3267,
              "y": 2.3403,
              "z": -1.0022
            }
          },
          {
            "elSymbol": "C",
            "p3d": {
              "x": -0.626,
              "y": 2.4866,
              "z": 0.7805
            }
          },
          {
            "elSymbol": "H",
            "p3d": {
              "x": 0.1766,
              "y": 3.089,
              "z": 1.2414
            }
          },
          {
            "elSymbol": "H",
            "p3d": {
              "x": -0.651,
              "y": 1.5065,
              "z": 1.2643
            }
          },
          {
            "elSymbol": "H",
            "p3d": {
              "x": -1.5658,
              "y": 2.981,
              "z": 0.9515
            }
          }
        ],
        "bonds": [
          {
            "atomIds": [
              1,
              2
            ],
            "bo": "SINGLE"
          },
          {
            "atomIds": [
              1,
              3
            ],
            "bo": "SINGLE"
          },
          {
            "atomIds": [
              1,
              4
            ],
            "bo": "SINGLE"
          },
          {
            "atomIds": [
              0,
              1
            ],
            "bo": "SINGLE"
          }
        ]
      },
      "vertexId": 85,
      "buildingBlockId": 63,
      "buildingBlockType": "FRAGMENT",
      "isRCV": false,
      "properties": {
        "ATTACHMENT_POINTS": "1#Xlig:1:SINGLE:-0.1020%0.0185%-1.0265 "
      },
      "uniquefyingPropertyKeys": [],
      "allowedMutationTypes": [
        "DELETE",
        "EXTEND",
        "CHANGEBRANCH",
        "CHANGELINK",
        "ADDLINK",
        "DELETELINK",
        "DELETECHAIN"
      ],
      "vertexType": "MolecularFragment"
    },
    {
      "lstAPs": [
        {
          "id": 43852,
          "atomPositionNumber": 0,
          "atomPositionNumberInMol": 33,
          "apClass": {
            "rule": "me",
            "subClass": 1,
            "bndTyp": "SINGLE"
          },
          "dirVec": {
            "x": 6.4052,
            "y": 0.4666,
            "z": 7.6784
          }
        }
      ],
      "lstSymAPs": [],
      "mol": {
        "atoms": [
          {
            "elSymbol": "C",
            "p3d": {
              "x": 5.1845,
              "y": -0.3158,
              "z": 7.9034
            }
          },
          {
            "elSymbol": "H",
            "p3d": {
              "x": 4.4018,
              "y": 0.0156,
              "z": 7.2277
            }
          },
          {
            "elSymbol": "H",
            "p3d": {
              "x": 4.8466,
              "y": -0.2064,
              "z": 8.9326
            }
          },
          {
            "elSymbol": "H",
            "p3d": {
              "x": 5.4032,
              "y": -1.3837,
              "z": 7.7252
            }
          }
        ],
        "bonds": [
          {
            "atomIds": [
              1,
              0
            ],
            "bo": "SINGLE"
          },
          {
            "atomIds": [
              2,
              0
            ],
            "bo": "SINGLE"
          },
          {
            "atomIds": [
              3,
              0
            ],
            "bo": "SINGLE"
          }
        ]
      },
      "vertexId": 32331,
      "buildingBlockId": 1,
      "buildingBlockType": "CAP",
      "isRCV": false,
      "properties": {
        "ATTACHMENT_POINTS": "1#me:1:SINGLE:6.4052%0.4666%7.6784 "
      },
      "uniquefyingPropertyKeys": [],
      "allowedMutationTypes": [
        "DELETE",
        "EXTEND",
        "CHANGEBRANCH",
        "CHANGELINK",
        "ADDLINK",
        "DELETELINK",
        "DELETECHAIN"
      ],
      "vertexType": "MolecularFragment"
    }
  ],
  "gEdges": [
    {
      "srcAPID": 43819,
      "trgAPID": 43822,
      "bondType": "SINGLE"
    },
    {
      "srcAPID": 43821,
      "trgAPID": 43824,
      "bondType": "SINGLE"
    },
    {
      "srcAPID": 43820,
      "trgAPID": 43825,
      "bondType": "SINGLE"
    },
    {
      "srcAPID": 43823,
      "trgAPID": 43852,
      "bondType": "SINGLE"
    }
  ],
  "gRings": [],
  "symVertices": []
}

> <SMILES>
[Pt](C#O)(SC([H])([H])[H])([P]1(C2([H])C([H])([H])C([H])([H])C(C1([H])C([H])([H])C(C2([H])[H])([H])[H])([H])[H])C([H])([H])[H])SC([H])([H])[H]

$$$$
