M00005294
  CDK     04222210363D

 55 57  0  0  0  0  0  0  0  0999 V2000
   -2.8472   -0.0389    0.1099 Pt  0  0  0  0  0  0  0  0  0  0  0  0
   -4.7869    0.2621    0.1339 C   0  0  0  0  0  0  0  0  0  0  0  0
   -5.9155    0.4350    0.1739 O   0  0  0  0  0  0  0  0  0  0  0  0
   -2.1123    1.5939   -0.8612 O   0  0  0  0  0  0  0  0  0  0  0  0
   -3.0292    2.6692   -0.8478 C   0  0  0  0  0  0  0  0  0  0  0  0
   -2.5162    3.5056   -1.3434 H   0  0  0  0  0  0  0  0  0  0  0  0
   -3.2771    2.9334    0.1880 H   0  0  0  0  0  0  0  0  0  0  0  0
   -3.9257    2.3950   -1.4176 H   0  0  0  0  0  0  0  0  0  0  0  0
   -0.5689   -0.2181    0.0857 P   0  0  0  0  0  0  0  0  0  0  0  0
   -0.7235   -2.2053    2.0658 C   0  0  0  0  0  0  0  0  0  0  0  0
   -1.2789   -3.1518    1.8444 H   0  0  0  0  0  0  0  0  0  0  0  0
   -1.4701   -1.4836    2.4699 H   0  0  0  0  0  0  0  0  0  0  0  0
    0.3658   -2.4772    3.1213 C   0  0  0  0  0  0  0  0  0  0  0  0
    0.8318   -1.5349    3.4763 H   0  0  0  0  0  0  0  0  0  0  0  0
   -0.0186   -3.0614    3.9768 H   0  0  0  0  0  0  0  0  0  0  0  0
    2.0215   -2.8375    1.4061 C   0  0  0  0  0  0  0  0  0  0  0  0
    2.7300   -3.6477    1.1556 H   0  0  0  0  0  0  0  0  0  0  0  0
    2.5722   -1.9121    1.6432 H   0  0  0  0  0  0  0  0  0  0  0  0
    0.9626   -2.6272    0.3080 C   0  0  0  0  0  0  0  0  0  0  0  0
    1.4319   -2.2658   -0.6300 H   0  0  0  0  0  0  0  0  0  0  0  0
    0.4873   -3.6110    0.0649 H   0  0  0  0  0  0  0  0  0  0  0  0
   -0.0904   -1.7168    0.8142 N   0  0  0  0  0  0  0  0  0  0  0  0
    1.4025   -3.3378    2.6083 O   0  0  0  0  0  0  0  0  0  0  0  0
    0.0384    2.4857    0.5310 C   0  0  0  0  0  0  0  0  0  0  0  0
   -0.7399    3.0549    1.0953 H   0  0  0  0  0  0  0  0  0  0  0  0
   -0.2652    2.5130   -0.5457 H   0  0  0  0  0  0  0  0  0  0  0  0
    1.4006    3.1777    0.7038 C   0  0  0  0  0  0  0  0  0  0  0  0
    2.1654    2.7671    0.0098 H   0  0  0  0  0  0  0  0  0  0  0  0
    1.3293    4.2730    0.5798 H   0  0  0  0  0  0  0  0  0  0  0  0
    2.0116    1.6860    2.4846 C   0  0  0  0  0  0  0  0  0  0  0  0
    2.3487    1.8023    3.5314 H   0  0  0  0  0  0  0  0  0  0  0  0
    2.7964    1.1882    1.8917 H   0  0  0  0  0  0  0  0  0  0  0  0
    0.6564    0.9593    2.3969 C   0  0  0  0  0  0  0  0  0  0  0  0
    0.7937   -0.1058    2.7014 H   0  0  0  0  0  0  0  0  0  0  0  0
   -0.0489    1.4215    3.1320 H   0  0  0  0  0  0  0  0  0  0  0  0
    0.0729    1.0942    1.0442 N   0  0  0  0  0  0  0  0  0  0  0  0
    1.8919    3.0548    2.0531 O   0  0  0  0  0  0  0  0  0  0  0  0
    0.1631   -0.2492   -1.6106 C   0  0  0  0  0  0  0  0  0  0  0  0
    1.1479   -0.2428   -4.2357 C   0  0  0  0  0  0  0  0  0  0  0  0
   -0.6882   -0.5913   -2.6793 C   0  0  0  0  0  0  0  0  0  0  0  0
    1.5205    0.0345   -1.8483 C   0  0  0  0  0  0  0  0  0  0  0  0
    1.9995    0.0491   -3.1700 C   0  0  0  0  0  0  0  0  0  0  0  0
   -0.1812   -0.5772   -3.9936 C   0  0  0  0  0  0  0  0  0  0  0  0
    3.0421    0.2889   -3.3676 H   0  0  0  0  0  0  0  0  0  0  0  0
   -0.8358   -0.8245   -4.8275 H   0  0  0  0  0  0  0  0  0  0  0  0
    1.5279   -0.2187   -5.2582 H   0  0  0  0  0  0  0  0  0  0  0  0
   -2.1228   -0.9845   -2.5224 C   0  0  0  0  0  0  0  0  0  0  0  0
   -2.7577   -0.0829   -2.3730 H   0  0  0  0  0  0  0  0  0  0  0  0
   -2.3201   -1.6957   -1.6955 H   0  0  0  0  0  0  0  0  0  0  0  0
   -2.5176   -1.4829   -3.4214 H   0  0  0  0  0  0  0  0  0  0  0  0
    2.5313    0.3096   -0.7822 C   0  0  0  0  0  0  0  0  0  0  0  0
    2.3748   -0.2460    0.1503 H   0  0  0  0  0  0  0  0  0  0  0  0
    2.5279    1.3888   -0.5151 H   0  0  0  0  0  0  0  0  0  0  0  0
    3.5540    0.0753   -1.1102 H   0  0  0  0  0  0  0  0  0  0  0  0
   -3.6617   -1.9894    1.1045 Cl  0  0  0  0  0  0  0  0  0  0  0  0
  2  3  3  0  0  0  0
  1  2  1  0  0  0  0
  5  6  1  0  0  0  0
  5  7  1  0  0  0  0
  5  8  1  0  0  0  0
  4  5  1  0  0  0  0
  1  4  1  0  0  0  0
  1  9  1  0  0  0  0
 10 11  1  0  0  0  0
 12 10  1  0  0  0  0
 13 10  1  0  0  0  0
 14 13  1  0  0  0  0
 15 13  1  0  0  0  0
 16 17  1  0  0  0  0
 18 16  1  0  0  0  0
 19 16  1  0  0  0  0
 20 19  1  0  0  0  0
 21 19  1  0  0  0  0
 22 10  1  0  0  0  0
 23 13  1  0  0  0  0
 16 23  1  0  0  0  0
 19 22  1  0  0  0  0
  9 22  1  0  0  0  0
 24 25  1  0  0  0  0
 26 24  1  0  0  0  0
 27 24  1  0  0  0  0
 28 27  1  0  0  0  0
 29 27  1  0  0  0  0
 30 31  1  0  0  0  0
 32 30  1  0  0  0  0
 33 30  1  0  0  0  0
 34 33  1  0  0  0  0
 35 33  1  0  0  0  0
 36 24  1  0  0  0  0
 37 27  1  0  0  0  0
 30 37  1  0  0  0  0
 33 36  1  0  0  0  0
  9 36  1  0  0  0  0
 38 41  1  0  0  0  0
 41 42  2  0  0  0  0
 39 42  1  0  0  0  0
 39 43  2  0  0  0  0
 40 43  1  0  0  0  0
 38 40  2  0  0  0  0
 42 44  1  0  0  0  0
 43 45  1  0  0  0  0
 39 46  1  0  0  0  0
 47 48  1  0  0  0  0
 47 49  1  0  0  0  0
 47 50  1  0  0  0  0
 40 47  1  0  0  0  0
 51 52  1  0  0  0  0
 51 53  1  0  0  0  0
 51 54  1  0  0  0  0
 41 51  1  0  0  0  0
  9 38  1  0  0  0  0
  1 55  1  0  0  0  0
M  END
> <PM6_ENERGY>
-662.476

> <UID>
XVQDGYAZLCBSCB-JFXVCZAZNA-M

> <FITNESS>
1.14247

> <GCODE>
6073

> <GraphENC>
6073 72_1_0,80_65_1,100_3_1,88_67_1,120592_9_1,120948_9_1,120604_38_1, 72_0_80_0_SINGLE_Xlig:0_Xlig:1,72_2_100_3_SINGLE_scaff:0_MBisAminoPhosphine:1,72_1_88_0_SINGLE_Xlig:0_Xlig:1,100_0_120592_0_SINGLE_LBisAminoPhosphineN:0_LAminoPhosphineCycloN:1,100_1_120948_0_SINGLE_LBisAminoPhosphineN:0_LAminoPhosphineCycloN:1,100_2_120604_0_SINGLE_LBisAminoPhosphineSubR:0_SubArL:1, SymmetricSet [symIds=[120592, 120948]] 

> <GraphJson>
{
  "graphId": 6073,
  "gVertices": [
    {
      "lstAPs": [
        {
          "id": 158588,
          "atomPositionNumber": 0,
          "atomPositionNumberInMol": 0,
          "apClass": {
            "rule": "Xlig",
            "subClass": 0,
            "bndTyp": "SINGLE"
          },
          "dirVec": {
            "x": -2.3339,
            "y": -0.0087,
            "z": 0.8172
          }
        },
        {
          "id": 158589,
          "atomPositionNumber": 0,
          "atomPositionNumberInMol": 0,
          "apClass": {
            "rule": "Xlig",
            "subClass": 0,
            "bndTyp": "SINGLE"
          },
          "dirVec": {
            "x": 2.336,
            "y": -5.0E-4,
            "z": 0.829
          }
        },
        {
          "id": 158590,
          "atomPositionNumber": 0,
          "atomPositionNumberInMol": 0,
          "apClass": {
            "rule": "scaff",
            "subClass": 0,
            "bndTyp": "SINGLE"
          },
          "dirVec": {
            "x": -0.0095,
            "y": 0.0046,
            "z": -1.7113
          }
        }
      ],
      "lstSymAPs": [
        {
          "symIds": [
            0,
            1
          ]
        }
      ],
      "mol": {
        "atoms": [
          {
            "elSymbol": "Pt",
            "p3d": {
              "x": -0.0098,
              "y": 0.0049,
              "z": 0.6289
            }
          },
          {
            "elSymbol": "C",
            "p3d": {
              "x": -6.0E-4,
              "y": 0.0016,
              "z": 2.5609
            }
          },
          {
            "elSymbol": "O",
            "p3d": {
              "x": 0.0025,
              "y": -0.0041,
              "z": 3.6974
            }
          },
          {
            "elSymbol": "Du",
            "p3d": {
              "x": -0.007,
              "y": 1.0013,
              "z": 0.6372
            }
          },
          {
            "elSymbol": "Du",
            "p3d": {
              "x": -0.0014,
              "y": 0.9902,
              "z": 2.5698
            }
          }
        ],
        "bonds": [
          {
            "atomIds": [
              1,
              2
            ],
            "bo": "TRIPLE"
          },
          {
            "atomIds": [
              0,
              1
            ],
            "bo": "SINGLE"
          },
          {
            "atomIds": [
              3,
              0
            ],
            "bo": "SINGLE"
          },
          {
            "atomIds": [
              4,
              1
            ],
            "bo": "SINGLE"
          }
        ]
      },
      "vertexId": 72,
      "buildingBlockId": 0,
      "buildingBlockType": "SCAFFOLD",
      "isRCV": false,
      "properties": {
        "ATTACHMENT_POINTS": "1#Xlig:0:SINGLE:-2.3339%-0.0087%0.8172,Xlig:0:SINGLE:2.3360%-0.0005%0.8290,scaff:0:SINGLE:-0.0095%0.0046%-1.7113 "
      },
      "uniquefyingPropertyKeys": [],
      "allowedMutationTypes": [
        "DELETE",
        "EXTEND",
        "CHANGEBRANCH",
        "CHANGELINK",
        "ADDLINK",
        "DELETELINK",
        "DELETECHAIN"
      ],
      "vertexType": "MolecularFragment"
    },
    {
      "lstAPs": [
        {
          "id": 158591,
          "atomPositionNumber": 0,
          "atomPositionNumberInMol": 5,
          "apClass": {
            "rule": "Xlig",
            "subClass": 1,
            "bndTyp": "SINGLE"
          },
          "dirVec": {
            "x": -0.1753,
            "y": 0.0948,
            "z": -0.4464
          }
        }
      ],
      "lstSymAPs": [],
      "mol": {
        "atoms": [
          {
            "elSymbol": "O",
            "p3d": {
              "x": -0.3534,
              "y": 2.1044,
              "z": -0.7339
            }
          },
          {
            "elSymbol": "C",
            "p3d": {
              "x": -0.5345,
              "y": 2.7646,
              "z": 0.4801
            }
          },
          {
            "elSymbol": "H",
            "p3d": {
              "x": -0.3728,
              "y": 3.8337,
              "z": 0.2724
            }
          },
          {
            "elSymbol": "H",
            "p3d": {
              "x": 0.1816,
              "y": 2.4161,
              "z": 1.2384
            }
          },
          {
            "elSymbol": "H",
            "p3d": {
              "x": -1.553,
              "y": 2.6149,
              "z": 0.8489
            }
          }
        ],
        "bonds": [
          {
            "atomIds": [
              1,
              2
            ],
            "bo": "SINGLE"
          },
          {
            "atomIds": [
              1,
              3
            ],
            "bo": "SINGLE"
          },
          {
            "atomIds": [
              1,
              4
            ],
            "bo": "SINGLE"
          },
          {
            "atomIds": [
              0,
              1
            ],
            "bo": "SINGLE"
          }
        ]
      },
      "vertexId": 80,
      "buildingBlockId": 64,
      "buildingBlockType": "FRAGMENT",
      "isRCV": false,
      "properties": {
        "ATTACHMENT_POINTS": "1#Xlig:1:SINGLE:-0.1753%0.0948%-0.4464 "
      },
      "uniquefyingPropertyKeys": [],
      "allowedMutationTypes": [
        "DELETE",
        "EXTEND",
        "CHANGEBRANCH",
        "CHANGELINK",
        "ADDLINK",
        "DELETELINK",
        "DELETECHAIN"
      ],
      "vertexType": "MolecularFragment"
    },
    {
      "lstAPs": [
        {
          "id": 158592,
          "atomPositionNumber": 0,
          "atomPositionNumberInMol": 10,
          "apClass": {
            "rule": "LBisAminoPhosphineN",
            "subClass": 0,
            "bndTyp": "SINGLE"
          },
          "dirVec": {
            "x": -1.9272,
            "y": -0.2351,
            "z": 5.6045
          }
        },
        {
          "id": 158593,
          "atomPositionNumber": 0,
          "atomPositionNumberInMol": 10,
          "apClass": {
            "rule": "LBisAminoPhosphineN",
            "subClass": 0,
            "bndTyp": "SINGLE"
          },
          "dirVec": {
            "x": -1.4136,
            "y": -2.2231,
            "z": 3.8983
          }
        },
        {
          "id": 158594,
          "atomPositionNumber": 0,
          "atomPositionNumberInMol": 10,
          "apClass": {
            "rule": "LBisAminoPhosphineSubR",
            "subClass": 0,
            "bndTyp": "SINGLE"
          },
          "dirVec": {
            "x": -3.1852,
            "y": -0.3594,
            "z": 3.1924
          }
        },
        {
          "id": 158595,
          "atomPositionNumber": 0,
          "atomPositionNumberInMol": 10,
          "apClass": {
            "rule": "MBisAminoPhosphine",
            "subClass": 1,
            "bndTyp": "SINGLE"
          },
          "dirVec": {
            "x": 0.1796,
            "y": 0.6567,
            "z": 3.3484
          }
        }
      ],
      "lstSymAPs": [
        {
          "symIds": [
            0,
            1
          ]
        }
      ],
      "mol": {
        "atoms": [
          {
            "elSymbol": "P",
            "p3d": {
              "x": -1.6038,
              "y": -0.5663,
              "z": 4.0324
            }
          }
        ],
        "bonds": []
      },
      "vertexId": 100,
      "buildingBlockId": 2,
      "buildingBlockType": "FRAGMENT",
      "isRCV": false,
      "properties": {
        "ATTACHMENT_POINTS": "1#LBisAminoPhosphineN:0:SINGLE:-1.9272%-0.2351%5.6045,LBisAminoPhosphineN:0:SINGLE:-1.4136%-2.2231%3.8983,LBisAminoPhosphineSubR:0:SINGLE:-3.1852%-0.3594%3.1924,MBisAminoPhosphine:1:SINGLE:0.1796%0.6567%3.3484 "
      },
      "uniquefyingPropertyKeys": [],
      "allowedMutationTypes": [
        "DELETE",
        "EXTEND",
        "CHANGEBRANCH",
        "CHANGELINK",
        "ADDLINK",
        "DELETELINK",
        "DELETECHAIN"
      ],
      "vertexType": "MolecularFragment"
    },
    {
      "lstAPs": [
        {
          "id": 158596,
          "atomPositionNumber": 0,
          "atomPositionNumberInMol": 56,
          "apClass": {
            "rule": "Xlig",
            "subClass": 1,
            "bndTyp": "SINGLE"
          },
          "dirVec": {
            "x": -0.0053,
            "y": -0.0027,
            "z": 0.63
          }
        }
      ],
      "lstSymAPs": [],
      "mol": {
        "atoms": [
          {
            "elSymbol": "Cl",
            "p3d": {
              "x": 2.3243,
              "y": -0.0063,
              "z": 0.8189
            }
          }
        ],
        "bonds": []
      },
      "vertexId": 88,
      "buildingBlockId": 66,
      "buildingBlockType": "FRAGMENT",
      "isRCV": false,
      "properties": {
        "ATTACHMENT_POINTS": "1#Xlig:1:SINGLE:-0.0053%-0.0027%0.6300 "
      },
      "uniquefyingPropertyKeys": [],
      "allowedMutationTypes": [
        "DELETE",
        "EXTEND",
        "CHANGEBRANCH",
        "CHANGELINK",
        "ADDLINK",
        "DELETELINK",
        "DELETECHAIN"
      ],
      "vertexType": "MolecularFragment"
    },
    {
      "lstAPs": [
        {
          "id": 158633,
          "atomPositionNumber": 12,
          "atomPositionNumberInMol": 23,
          "apClass": {
            "rule": "LAminoPhosphineCycloN",
            "subClass": 1,
            "bndTyp": "SINGLE"
          },
          "dirVec": {
            "x": 3.8318,
            "y": 4.4705,
            "z": 2.8673
          }
        }
      ],
      "lstSymAPs": [],
      "mol": {
        "atoms": [
          {
            "elSymbol": "C",
            "p3d": {
              "x": 1.6447,
              "y": 5.1042,
              "z": 4.3264
            }
          },
          {
            "elSymbol": "H",
            "p3d": {
              "x": 1.9147,
              "y": 6.0213,
              "z": 4.8479
            }
          },
          {
            "elSymbol": "H",
            "p3d": {
              "x": 1.9986,
              "y": 4.2552,
              "z": 4.9127
            }
          },
          {
            "elSymbol": "C",
            "p3d": {
              "x": 0.1515,
              "y": 5.0176,
              "z": 4.1739
            }
          },
          {
            "elSymbol": "H",
            "p3d": {
              "x": -0.1334,
              "y": 4.0848,
              "z": 3.6797
            }
          },
          {
            "elSymbol": "H",
            "p3d": {
              "x": -0.3255,
              "y": 5.0447,
              "z": 5.1478
            }
          },
          {
            "elSymbol": "C",
            "p3d": {
              "x": 0.2487,
              "y": 6.072,
              "z": 2.1008
            }
          },
          {
            "elSymbol": "H",
            "p3d": {
              "x": -0.1423,
              "y": 6.9098,
              "z": 1.5084
            }
          },
          {
            "elSymbol": "H",
            "p3d": {
              "x": -0.0446,
              "y": 5.157,
              "z": 1.5955
            }
          },
          {
            "elSymbol": "C",
            "p3d": {
              "x": 1.7465,
              "y": 6.1786,
              "z": 2.1683
            }
          },
          {
            "elSymbol": "H",
            "p3d": {
              "x": 2.17,
              "y": 6.1296,
              "z": 1.1666
            }
          },
          {
            "elSymbol": "H",
            "p3d": {
              "x": 2.031,
              "y": 7.1422,
              "z": 2.6107
            }
          },
          {
            "elSymbol": "N",
            "p3d": {
              "x": 2.2792,
              "y": 5.0823,
              "z": 2.9873
            }
          },
          {
            "elSymbol": "O",
            "p3d": {
              "x": -0.34,
              "y": 6.1108,
              "z": 3.3895
            }
          }
        ],
        "bonds": [
          {
            "atomIds": [
              0,
              1
            ],
            "bo": "SINGLE"
          },
          {
            "atomIds": [
              2,
              0
            ],
            "bo": "SINGLE"
          },
          {
            "atomIds": [
              3,
              0
            ],
            "bo": "SINGLE"
          },
          {
            "atomIds": [
              4,
              3
            ],
            "bo": "SINGLE"
          },
          {
            "atomIds": [
              5,
              3
            ],
            "bo": "SINGLE"
          },
          {
            "atomIds": [
              6,
              7
            ],
            "bo": "SINGLE"
          },
          {
            "atomIds": [
              8,
              6
            ],
            "bo": "SINGLE"
          },
          {
            "atomIds": [
              9,
              6
            ],
            "bo": "SINGLE"
          },
          {
            "atomIds": [
              10,
              9
            ],
            "bo": "SINGLE"
          },
          {
            "atomIds": [
              11,
              9
            ],
            "bo": "SINGLE"
          },
          {
            "atomIds": [
              12,
              0
            ],
            "bo": "SINGLE"
          },
          {
            "atomIds": [
              13,
              3
            ],
            "bo": "SINGLE"
          },
          {
            "atomIds": [
              6,
              13
            ],
            "bo": "SINGLE"
          },
          {
            "atomIds": [
              9,
              12
            ],
            "bo": "SINGLE"
          }
        ]
      },
      "vertexId": 120592,
      "buildingBlockId": 8,
      "buildingBlockType": "FRAGMENT",
      "isRCV": false,
      "properties": {
        "ATTACHMENT_POINTS": "13#LAminoPhosphineCycloN:1:SINGLE:3.8318%4.4705%2.8673 "
      },
      "uniquefyingPropertyKeys": [],
      "allowedMutationTypes": [
        "DELETE",
        "EXTEND",
        "CHANGEBRANCH",
        "CHANGELINK",
        "ADDLINK",
        "DELETELINK",
        "DELETECHAIN"
      ],
      "vertexType": "MolecularFragment"
    },
    {
      "lstAPs": [
        {
          "id": 158634,
          "atomPositionNumber": 12,
          "atomPositionNumberInMol": 37,
          "apClass": {
            "rule": "LAminoPhosphineCycloN",
            "subClass": 1,
            "bndTyp": "SINGLE"
          },
          "dirVec": {
            "x": 3.8318,
            "y": 4.4705,
            "z": 2.8673
          }
        }
      ],
      "lstSymAPs": [],
      "mol": {
        "atoms": [
          {
            "elSymbol": "C",
            "p3d": {
              "x": 1.6447,
              "y": 5.1042,
              "z": 4.3264
            }
          },
          {
            "elSymbol": "H",
            "p3d": {
              "x": 1.9147,
              "y": 6.0213,
              "z": 4.8479
            }
          },
          {
            "elSymbol": "H",
            "p3d": {
              "x": 1.9986,
              "y": 4.2552,
              "z": 4.9127
            }
          },
          {
            "elSymbol": "C",
            "p3d": {
              "x": 0.1515,
              "y": 5.0176,
              "z": 4.1739
            }
          },
          {
            "elSymbol": "H",
            "p3d": {
              "x": -0.1334,
              "y": 4.0848,
              "z": 3.6797
            }
          },
          {
            "elSymbol": "H",
            "p3d": {
              "x": -0.3255,
              "y": 5.0447,
              "z": 5.1478
            }
          },
          {
            "elSymbol": "C",
            "p3d": {
              "x": 0.2487,
              "y": 6.072,
              "z": 2.1008
            }
          },
          {
            "elSymbol": "H",
            "p3d": {
              "x": -0.1423,
              "y": 6.9098,
              "z": 1.5084
            }
          },
          {
            "elSymbol": "H",
            "p3d": {
              "x": -0.0446,
              "y": 5.157,
              "z": 1.5955
            }
          },
          {
            "elSymbol": "C",
            "p3d": {
              "x": 1.7465,
              "y": 6.1786,
              "z": 2.1683
            }
          },
          {
            "elSymbol": "H",
            "p3d": {
              "x": 2.17,
              "y": 6.1296,
              "z": 1.1666
            }
          },
          {
            "elSymbol": "H",
            "p3d": {
              "x": 2.031,
              "y": 7.1422,
              "z": 2.6107
            }
          },
          {
            "elSymbol": "N",
            "p3d": {
              "x": 2.2792,
              "y": 5.0823,
              "z": 2.9873
            }
          },
          {
            "elSymbol": "O",
            "p3d": {
              "x": -0.34,
              "y": 6.1108,
              "z": 3.3895
            }
          }
        ],
        "bonds": [
          {
            "atomIds": [
              0,
              1
            ],
            "bo": "SINGLE"
          },
          {
            "atomIds": [
              2,
              0
            ],
            "bo": "SINGLE"
          },
          {
            "atomIds": [
              3,
              0
            ],
            "bo": "SINGLE"
          },
          {
            "atomIds": [
              4,
              3
            ],
            "bo": "SINGLE"
          },
          {
            "atomIds": [
              5,
              3
            ],
            "bo": "SINGLE"
          },
          {
            "atomIds": [
              6,
              7
            ],
            "bo": "SINGLE"
          },
          {
            "atomIds": [
              8,
              6
            ],
            "bo": "SINGLE"
          },
          {
            "atomIds": [
              9,
              6
            ],
            "bo": "SINGLE"
          },
          {
            "atomIds": [
              10,
              9
            ],
            "bo": "SINGLE"
          },
          {
            "atomIds": [
              11,
              9
            ],
            "bo": "SINGLE"
          },
          {
            "atomIds": [
              12,
              0
            ],
            "bo": "SINGLE"
          },
          {
            "atomIds": [
              13,
              3
            ],
            "bo": "SINGLE"
          },
          {
            "atomIds": [
              6,
              13
            ],
            "bo": "SINGLE"
          },
          {
            "atomIds": [
              9,
              12
            ],
            "bo": "SINGLE"
          }
        ]
      },
      "vertexId": 120948,
      "buildingBlockId": 8,
      "buildingBlockType": "FRAGMENT",
      "isRCV": false,
      "properties": {
        "ATTACHMENT_POINTS": "13#LAminoPhosphineCycloN:1:SINGLE:3.8318%4.4705%2.8673 "
      },
      "uniquefyingPropertyKeys": [],
      "allowedMutationTypes": [
        "DELETE",
        "EXTEND",
        "CHANGEBRANCH",
        "CHANGELINK",
        "ADDLINK",
        "DELETELINK",
        "DELETECHAIN"
      ],
      "vertexType": "MolecularFragment"
    },
    {
      "lstAPs": [
        {
          "id": 158635,
          "atomPositionNumber": 0,
          "atomPositionNumberInMol": 39,
          "apClass": {
            "rule": "SubArL",
            "subClass": 1,
            "bndTyp": "SINGLE"
          },
          "dirVec": {
            "x": 0.2957,
            "y": 0.3816,
            "z": -0.6358
          }
        }
      ],
      "lstSymAPs": [],
      "mol": {
        "atoms": [
          {
            "elSymbol": "C",
            "p3d": {
              "x": 1.7088,
              "y": 0.551,
              "z": -1.2192
            }
          },
          {
            "elSymbol": "C",
            "p3d": {
              "x": 4.2535,
              "y": 0.8673,
              "z": -2.2548
            }
          },
          {
            "elSymbol": "C",
            "p3d": {
              "x": 2.3329,
              "y": 1.7979,
              "z": -1.1377
            }
          },
          {
            "elSymbol": "C",
            "p3d": {
              "x": 2.3315,
              "y": -0.5114,
              "z": -1.8171
            }
          },
          {
            "elSymbol": "C",
            "p3d": {
              "x": 3.6062,
              "y": -0.3595,
              "z": -2.3299
            }
          },
          {
            "elSymbol": "C",
            "p3d": {
              "x": 3.6205,
              "y": 1.9526,
              "z": -1.657
            }
          },
          {
            "elSymbol": "H",
            "p3d": {
              "x": 4.116,
              "y": -1.2062,
              "z": -2.8187
            }
          },
          {
            "elSymbol": "H",
            "p3d": {
              "x": 4.1193,
              "y": 2.9144,
              "z": -1.5883
            }
          },
          {
            "elSymbol": "H",
            "p3d": {
              "x": 5.2485,
              "y": 0.9961,
              "z": -2.6688
            }
          },
          {
            "elSymbol": "C",
            "p3d": {
              "x": 1.6389,
              "y": 2.9732,
              "z": -0.4581
            }
          },
          {
            "elSymbol": "H",
            "p3d": {
              "x": 2.3787,
              "y": 3.6649,
              "z": -0.0604
            }
          },
          {
            "elSymbol": "H",
            "p3d": {
              "x": 1.0049,
              "y": 2.601,
              "z": 0.3676
            }
          },
          {
            "elSymbol": "H",
            "p3d": {
              "x": 1.0013,
              "y": 3.4961,
              "z": -1.199
            }
          },
          {
            "elSymbol": "C",
            "p3d": {
              "x": 1.6397,
              "y": -1.8757,
              "z": -1.9164
            }
          },
          {
            "elSymbol": "H",
            "p3d": {
              "x": 2.3747,
              "y": -2.6603,
              "z": -1.9613
            }
          },
          {
            "elSymbol": "H",
            "p3d": {
              "x": 1.0044,
              "y": -1.9015,
              "z": -2.8054
            }
          },
          {
            "elSymbol": "H",
            "p3d": {
              "x": 1.0057,
              "y": -2.0243,
              "z": -1.0149
            }
          }
        ],
        "bonds": [
          {
            "atomIds": [
              0,
              3
            ],
            "bo": "SINGLE"
          },
          {
            "atomIds": [
              3,
              4
            ],
            "bo": "DOUBLE"
          },
          {
            "atomIds": [
              1,
              4
            ],
            "bo": "SINGLE"
          },
          {
            "atomIds": [
              1,
              5
            ],
            "bo": "DOUBLE"
          },
          {
            "atomIds": [
              2,
              5
            ],
            "bo": "SINGLE"
          },
          {
            "atomIds": [
              0,
              2
            ],
            "bo": "DOUBLE"
          },
          {
            "atomIds": [
              4,
              6
            ],
            "bo": "SINGLE"
          },
          {
            "atomIds": [
              5,
              7
            ],
            "bo": "SINGLE"
          },
          {
            "atomIds": [
              1,
              8
            ],
            "bo": "SINGLE"
          },
          {
            "atomIds": [
              9,
              10
            ],
            "bo": "SINGLE"
          },
          {
            "atomIds": [
              9,
              11
            ],
            "bo": "SINGLE"
          },
          {
            "atomIds": [
              9,
              12
            ],
            "bo": "SINGLE"
          },
          {
            "atomIds": [
              2,
              9
            ],
            "bo": "SINGLE"
          },
          {
            "atomIds": [
              13,
              14
            ],
            "bo": "SINGLE"
          },
          {
            "atomIds": [
              13,
              15
            ],
            "bo": "SINGLE"
          },
          {
            "atomIds": [
              13,
              16
            ],
            "bo": "SINGLE"
          },
          {
            "atomIds": [
              3,
              13
            ],
            "bo": "SINGLE"
          }
        ]
      },
      "vertexId": 120604,
      "buildingBlockId": 37,
      "buildingBlockType": "FRAGMENT",
      "isRCV": false,
      "properties": {
        "ATTACHMENT_POINTS": "1#SubArL:1:SINGLE:0.2957%0.3816%-0.6358 "
      },
      "uniquefyingPropertyKeys": [],
      "allowedMutationTypes": [
        "DELETE",
        "EXTEND",
        "CHANGEBRANCH",
        "CHANGELINK",
        "ADDLINK",
        "DELETELINK",
        "DELETECHAIN"
      ],
      "vertexType": "MolecularFragment"
    }
  ],
  "gEdges": [
    {
      "srcAPID": 158588,
      "trgAPID": 158591,
      "bondType": "SINGLE"
    },
    {
      "srcAPID": 158590,
      "trgAPID": 158595,
      "bondType": "SINGLE"
    },
    {
      "srcAPID": 158589,
      "trgAPID": 158596,
      "bondType": "SINGLE"
    },
    {
      "srcAPID": 158592,
      "trgAPID": 158633,
      "bondType": "SINGLE"
    },
    {
      "srcAPID": 158593,
      "trgAPID": 158634,
      "bondType": "SINGLE"
    },
    {
      "srcAPID": 158594,
      "trgAPID": 158635,
      "bondType": "SINGLE"
    }
  ],
  "gRings": [],
  "symVertices": [
    {
      "symIds": [
        120592,
        120948
      ]
    }
  ]
}

> <SMILES>
[Pt](C#O)(OC([H])([H])[H])([P](N1C([H])([H])C([H])([H])OC([H])([H])C1([H])[H])(N2C([H])([H])C([H])([H])OC([H])([H])C2([H])[H])C=3C(=C(C(=C(C3C([H])([H])[H])[H])[H])[H])C([H])([H])[H])Cl

$$$$
