M00004089
  CDK     04222210103D

 43 43  0  0  0  0  0  0  0  0999 V2000
   -2.0965   -0.1584   -0.1007 Pt  0  0  0  0  0  0  0  0  0  0  0  0
   -4.0565   -0.1709   -0.1505 C   0  0  0  0  0  0  0  0  0  0  0  0
   -5.1979   -0.1837   -0.1903 O   0  0  0  0  0  0  0  0  0  0  0  0
   -2.1967    1.8982   -0.3156 O   0  0  0  0  0  0  0  0  0  0  0  0
   -2.3088    2.5154    0.9438 C   0  0  0  0  0  0  0  0  0  0  0  0
   -2.6173    3.5520    0.7468 H   0  0  0  0  0  0  0  0  0  0  0  0
   -1.3373    2.4987    1.4557 H   0  0  0  0  0  0  0  0  0  0  0  0
   -3.0679    2.0045    1.5500 H   0  0  0  0  0  0  0  0  0  0  0  0
    2.1959   -0.1780    1.5965 C   0  0  0  0  0  0  0  0  0  0  0  0
    3.0828   -0.7325    1.2112 H   0  0  0  0  0  0  0  0  0  0  0  0
    2.3166   -0.1035    2.7001 H   0  0  0  0  0  0  0  0  0  0  0  0
    2.1249    1.2434    0.9686 C   0  0  0  0  0  0  0  0  0  0  0  0
    1.9597    2.0112    1.7591 H   0  0  0  0  0  0  0  0  0  0  0  0
    3.0883    1.4942    0.4710 H   0  0  0  0  0  0  0  0  0  0  0  0
    0.9538   -0.9216    1.2665 N   0  0  0  0  0  0  0  0  0  0  0  0
    1.0097    1.2940   -0.0110 N   0  0  0  0  0  0  0  0  0  0  0  0
    0.1674   -0.2179   -0.1014 P   0  0  0  0  0  0  0  0  0  0  0  0
   -0.4751   -0.7831   -2.6915 C   0  0  0  0  0  0  0  0  0  0  0  0
    0.6930   -1.0356   -1.7442 C   0  0  0  0  0  0  0  0  0  0  0  0
    1.0031   -2.5109   -1.5589 C   0  0  0  0  0  0  0  0  0  0  0  0
    1.8114   -2.6943   -0.8396 H   0  0  0  0  0  0  0  0  0  0  0  0
    1.3249   -2.9541   -2.5131 H   0  0  0  0  0  0  0  0  0  0  0  0
    0.1317   -3.1049   -1.2398 H   0  0  0  0  0  0  0  0  0  0  0  0
   -0.7443    0.2810   -2.7898 H   0  0  0  0  0  0  0  0  0  0  0  0
   -0.2260   -1.1303   -3.7058 H   0  0  0  0  0  0  0  0  0  0  0  0
   -1.3910   -1.3350   -2.4087 H   0  0  0  0  0  0  0  0  0  0  0  0
    1.6082   -0.5117   -2.1184 H   0  0  0  0  0  0  0  0  0  0  0  0
   -0.6762   -1.6320    3.0107 C   0  0  0  0  0  0  0  0  0  0  0  0
    0.4720   -2.0493    2.0900 C   0  0  0  0  0  0  0  0  0  0  0  0
   -1.5502   -1.2699    2.4453 H   0  0  0  0  0  0  0  0  0  0  0  0
   -1.0226   -2.4826    3.6110 H   0  0  0  0  0  0  0  0  0  0  0  0
   -0.3811   -0.8318    3.6978 H   0  0  0  0  0  0  0  0  0  0  0  0
    1.3248   -2.4386    2.6912 H   0  0  0  0  0  0  0  0  0  0  0  0
    0.1472   -2.8859    1.4234 H   0  0  0  0  0  0  0  0  0  0  0  0
    1.5671    2.5996   -2.0648 C   0  0  0  0  0  0  0  0  0  0  0  0
    0.7233    2.5130   -0.7912 C   0  0  0  0  0  0  0  0  0  0  0  0
    1.3161    1.8072   -2.7788 H   0  0  0  0  0  0  0  0  0  0  0  0
    1.3993    3.5565   -2.5736 H   0  0  0  0  0  0  0  0  0  0  0  0
    2.6385    2.5205   -1.8538 H   0  0  0  0  0  0  0  0  0  0  0  0
    0.9154    3.4021   -0.1480 H   0  0  0  0  0  0  0  0  0  0  0  0
   -0.3750    2.5411   -1.0442 H   0  0  0  0  0  0  0  0  0  0  0  0
   -2.1117   -2.1306    0.0159 C   0  0  0  0  0  0  0  0  0  0  0  0
   -2.1428   -3.2853    0.0792 N   0  0  0  0  0  0  0  0  0  0  0  0
  2  3  3  0  0  0  0
  1  2  1  0  0  0  0
  5  6  1  0  0  0  0
  5  7  1  0  0  0  0
  5  8  1  0  0  0  0
  4  5  1  0  0  0  0
  1  4  1  0  0  0  0
  9 10  1  0  0  0  0
  9 15  1  0  0  0  0
 11  9  1  0  0  0  0
 12  9  1  0  0  0  0
 13 12  1  0  0  0  0
 14 12  1  0  0  0  0
 15 17  1  0  0  0  0
 16 12  1  0  0  0  0
 16 17  1  0  0  0  0
  1 17  1  0  0  0  0
 18 19  1  0  0  0  0
 19 20  1  0  0  0  0
 20 21  1  0  0  0  0
 20 22  1  0  0  0  0
 20 23  1  0  0  0  0
 18 24  1  0  0  0  0
 18 25  1  0  0  0  0
 18 26  1  0  0  0  0
 19 27  1  0  0  0  0
 17 19  1  0  0  0  0
 28 29  1  0  0  0  0
 28 30  1  0  0  0  0
 28 31  1  0  0  0  0
 28 32  1  0  0  0  0
 29 33  1  0  0  0  0
 29 34  1  0  0  0  0
 15 29  1  0  0  0  0
 35 36  1  0  0  0  0
 35 37  1  0  0  0  0
 35 38  1  0  0  0  0
 35 39  1  0  0  0  0
 36 40  1  0  0  0  0
 36 41  1  0  0  0  0
 16 36  1  0  0  0  0
 42 43  3  0  0  0  0
  1 42  1  0  0  0  0
M  END
> <PM6_ENERGY>
-282.358

> <UID>
LDNKROUMVIZCHG-IXTYLALINA-N

> <FITNESS>
1.14217

> <GCODE>
4814

> <GraphENC>
4814 72_1_0,80_65_1,99_2_1,87_66_1,94742_33_1,94732_32_1,94896_32_1, 72_0_80_0_SINGLE_Xlig:0_Xlig:1,72_2_99_3_SINGLE_scaff:0_MBisAminoPhosphine:1,72_1_87_0_SINGLE_Xlig:0_Xlig:1,99_2_94742_0_SINGLE_LBisAminoPhosphineSubR:0_SubRM:1,99_0_94732_0_SINGLE_LCycloBisAminoPhosphineSubN:0_SubRS:1,99_1_94896_0_SINGLE_LCycloBisAminoPhosphineSubN:0_SubRS:1, SymmetricSet [symIds=[94732, 94896]] 

> <GraphJson>
{
  "graphId": 4814,
  "gVertices": [
    {
      "lstAPs": [
        {
          "id": 124773,
          "atomPositionNumber": 0,
          "atomPositionNumberInMol": 0,
          "apClass": {
            "rule": "Xlig",
            "subClass": 0,
            "bndTyp": "SINGLE"
          },
          "dirVec": {
            "x": -2.3339,
            "y": -0.0087,
            "z": 0.8172
          }
        },
        {
          "id": 124774,
          "atomPositionNumber": 0,
          "atomPositionNumberInMol": 0,
          "apClass": {
            "rule": "Xlig",
            "subClass": 0,
            "bndTyp": "SINGLE"
          },
          "dirVec": {
            "x": 2.336,
            "y": -5.0E-4,
            "z": 0.829
          }
        },
        {
          "id": 124775,
          "atomPositionNumber": 0,
          "atomPositionNumberInMol": 0,
          "apClass": {
            "rule": "scaff",
            "subClass": 0,
            "bndTyp": "SINGLE"
          },
          "dirVec": {
            "x": -0.0095,
            "y": 0.0046,
            "z": -1.7113
          }
        }
      ],
      "lstSymAPs": [
        {
          "symIds": [
            0,
            1
          ]
        }
      ],
      "mol": {
        "atoms": [
          {
            "elSymbol": "Pt",
            "p3d": {
              "x": -0.0098,
              "y": 0.0049,
              "z": 0.6289
            }
          },
          {
            "elSymbol": "C",
            "p3d": {
              "x": -6.0E-4,
              "y": 0.0016,
              "z": 2.5609
            }
          },
          {
            "elSymbol": "O",
            "p3d": {
              "x": 0.0025,
              "y": -0.0041,
              "z": 3.6974
            }
          },
          {
            "elSymbol": "Du",
            "p3d": {
              "x": -0.007,
              "y": 1.0013,
              "z": 0.6372
            }
          },
          {
            "elSymbol": "Du",
            "p3d": {
              "x": -0.0014,
              "y": 0.9902,
              "z": 2.5698
            }
          }
        ],
        "bonds": [
          {
            "atomIds": [
              1,
              2
            ],
            "bo": "TRIPLE"
          },
          {
            "atomIds": [
              0,
              1
            ],
            "bo": "SINGLE"
          },
          {
            "atomIds": [
              3,
              0
            ],
            "bo": "SINGLE"
          },
          {
            "atomIds": [
              4,
              1
            ],
            "bo": "SINGLE"
          }
        ]
      },
      "vertexId": 72,
      "buildingBlockId": 0,
      "buildingBlockType": "SCAFFOLD",
      "isRCV": false,
      "properties": {
        "ATTACHMENT_POINTS": "1#Xlig:0:SINGLE:-2.3339%-0.0087%0.8172,Xlig:0:SINGLE:2.3360%-0.0005%0.8290,scaff:0:SINGLE:-0.0095%0.0046%-1.7113 "
      },
      "uniquefyingPropertyKeys": [],
      "allowedMutationTypes": [
        "DELETE",
        "EXTEND",
        "CHANGEBRANCH",
        "CHANGELINK",
        "ADDLINK",
        "DELETELINK",
        "DELETECHAIN"
      ],
      "vertexType": "MolecularFragment"
    },
    {
      "lstAPs": [
        {
          "id": 124776,
          "atomPositionNumber": 0,
          "atomPositionNumberInMol": 5,
          "apClass": {
            "rule": "Xlig",
            "subClass": 1,
            "bndTyp": "SINGLE"
          },
          "dirVec": {
            "x": -0.1753,
            "y": 0.0948,
            "z": -0.4464
          }
        }
      ],
      "lstSymAPs": [],
      "mol": {
        "atoms": [
          {
            "elSymbol": "O",
            "p3d": {
              "x": -0.3534,
              "y": 2.1044,
              "z": -0.7339
            }
          },
          {
            "elSymbol": "C",
            "p3d": {
              "x": -0.5345,
              "y": 2.7646,
              "z": 0.4801
            }
          },
          {
            "elSymbol": "H",
            "p3d": {
              "x": -0.3728,
              "y": 3.8337,
              "z": 0.2724
            }
          },
          {
            "elSymbol": "H",
            "p3d": {
              "x": 0.1816,
              "y": 2.4161,
              "z": 1.2384
            }
          },
          {
            "elSymbol": "H",
            "p3d": {
              "x": -1.553,
              "y": 2.6149,
              "z": 0.8489
            }
          }
        ],
        "bonds": [
          {
            "atomIds": [
              1,
              2
            ],
            "bo": "SINGLE"
          },
          {
            "atomIds": [
              1,
              3
            ],
            "bo": "SINGLE"
          },
          {
            "atomIds": [
              1,
              4
            ],
            "bo": "SINGLE"
          },
          {
            "atomIds": [
              0,
              1
            ],
            "bo": "SINGLE"
          }
        ]
      },
      "vertexId": 80,
      "buildingBlockId": 64,
      "buildingBlockType": "FRAGMENT",
      "isRCV": false,
      "properties": {
        "ATTACHMENT_POINTS": "1#Xlig:1:SINGLE:-0.1753%0.0948%-0.4464 "
      },
      "uniquefyingPropertyKeys": [],
      "allowedMutationTypes": [
        "DELETE",
        "EXTEND",
        "CHANGEBRANCH",
        "CHANGELINK",
        "ADDLINK",
        "DELETELINK",
        "DELETECHAIN"
      ],
      "vertexType": "MolecularFragment"
    },
    {
      "lstAPs": [
        {
          "id": 124777,
          "atomPositionNumber": 6,
          "atomPositionNumberInMol": 16,
          "apClass": {
            "rule": "LCycloBisAminoPhosphineSubN",
            "subClass": 0,
            "bndTyp": "SINGLE"
          },
          "dirVec": {
            "x": 5.444,
            "y": 15.1509,
            "z": 1.4318
          }
        },
        {
          "id": 124778,
          "atomPositionNumber": 7,
          "atomPositionNumberInMol": 17,
          "apClass": {
            "rule": "LCycloBisAminoPhosphineSubN",
            "subClass": 0,
            "bndTyp": "SINGLE"
          },
          "dirVec": {
            "x": 6.0759,
            "y": 19.8798,
            "z": 3.3975
          }
        },
        {
          "id": 124779,
          "atomPositionNumber": 8,
          "atomPositionNumberInMol": 18,
          "apClass": {
            "rule": "LBisAminoPhosphineSubR",
            "subClass": 0,
            "bndTyp": "SINGLE"
          },
          "dirVec": {
            "x": 8.322,
            "y": 17.0114,
            "z": 3.3102
          }
        },
        {
          "id": 124780,
          "atomPositionNumber": 8,
          "atomPositionNumberInMol": 18,
          "apClass": {
            "rule": "MBisAminoPhosphine",
            "subClass": 1,
            "bndTyp": "SINGLE"
          },
          "dirVec": {
            "x": 7.5392,
            "y": 18.0219,
            "z": 0.2376
          }
        }
      ],
      "lstSymAPs": [
        {
          "symIds": [
            0,
            1
          ]
        }
      ],
      "mol": {
        "atoms": [
          {
            "elSymbol": "C",
            "p3d": {
              "x": 4.9306,
              "y": 16.3362,
              "z": 3.6097
            }
          },
          {
            "elSymbol": "H",
            "p3d": {
              "x": 5.41,
              "y": 15.9229,
              "z": 4.4964
            }
          },
          {
            "elSymbol": "H",
            "p3d": {
              "x": 3.9543,
              "y": 15.8675,
              "z": 3.4723
            }
          },
          {
            "elSymbol": "C",
            "p3d": {
              "x": 4.7677,
              "y": 17.836,
              "z": 3.7637
            }
          },
          {
            "elSymbol": "H",
            "p3d": {
              "x": 3.8551,
              "y": 18.1933,
              "z": 3.2482
            }
          },
          {
            "elSymbol": "H",
            "p3d": {
              "x": 4.6641,
              "y": 18.1095,
              "z": 4.8111
            }
          },
          {
            "elSymbol": "N",
            "p3d": {
              "x": 5.7767,
              "y": 16.1652,
              "z": 2.3965
            }
          },
          {
            "elSymbol": "N",
            "p3d": {
              "x": 5.9524,
              "y": 18.471,
              "z": 3.179
            }
          },
          {
            "elSymbol": "P",
            "p3d": {
              "x": 6.8638,
              "y": 17.4143,
              "z": 2.2309
            }
          }
        ],
        "bonds": [
          {
            "atomIds": [
              0,
              1
            ],
            "bo": "SINGLE"
          },
          {
            "atomIds": [
              0,
              6
            ],
            "bo": "SINGLE"
          },
          {
            "atomIds": [
              2,
              0
            ],
            "bo": "SINGLE"
          },
          {
            "atomIds": [
              3,
              0
            ],
            "bo": "SINGLE"
          },
          {
            "atomIds": [
              4,
              3
            ],
            "bo": "SINGLE"
          },
          {
            "atomIds": [
              5,
              3
            ],
            "bo": "SINGLE"
          },
          {
            "atomIds": [
              6,
              8
            ],
            "bo": "SINGLE"
          },
          {
            "atomIds": [
              7,
              3
            ],
            "bo": "SINGLE"
          },
          {
            "atomIds": [
              7,
              8
            ],
            "bo": "SINGLE"
          }
        ]
      },
      "vertexId": 99,
      "buildingBlockId": 1,
      "buildingBlockType": "FRAGMENT",
      "isRCV": false,
      "properties": {
        "ATTACHMENT_POINTS": "7#LCycloBisAminoPhosphineSubN:0:SINGLE:5.4440%15.1509%1.4318 8#LCycloBisAminoPhosphineSubN:0:SINGLE:6.0759%19.8798%3.3975 9#LBisAminoPhosphineSubR:0:SINGLE:8.3220%17.0114%3.3102,MBisAminoPhosphine:1:SINGLE:7.5392%18.0219%0.2376 "
      },
      "uniquefyingPropertyKeys": [],
      "allowedMutationTypes": [
        "DELETE",
        "EXTEND",
        "CHANGEBRANCH",
        "CHANGELINK",
        "ADDLINK",
        "DELETELINK",
        "DELETECHAIN"
      ],
      "vertexType": "MolecularFragment"
    },
    {
      "lstAPs": [
        {
          "id": 124781,
          "atomPositionNumber": 0,
          "atomPositionNumberInMol": 43,
          "apClass": {
            "rule": "Xlig",
            "subClass": 1,
            "bndTyp": "SINGLE"
          },
          "dirVec": {
            "x": 0.0192,
            "y": -0.0048,
            "z": -0.5645
          }
        }
      ],
      "lstSymAPs": [],
      "mol": {
        "atoms": [
          {
            "elSymbol": "C",
            "p3d": {
              "x": -1.967,
              "y": -0.0075,
              "z": -0.4937
            }
          },
          {
            "elSymbol": "N",
            "p3d": {
              "x": -3.1263,
              "y": -0.0054,
              "z": -0.4354
            }
          },
          {
            "elSymbol": "Du",
            "p3d": {
              "x": -1.9744,
              "y": 0.9926,
              "z": -0.5036
            }
          }
        ],
        "bonds": [
          {
            "atomIds": [
              0,
              1
            ],
            "bo": "TRIPLE"
          },
          {
            "atomIds": [
              2,
              0
            ],
            "bo": "SINGLE"
          }
        ]
      },
      "vertexId": 87,
      "buildingBlockId": 65,
      "buildingBlockType": "FRAGMENT",
      "isRCV": false,
      "properties": {
        "ATTACHMENT_POINTS": "1#Xlig:1:SINGLE:0.0192%-0.0048%-0.5645 "
      },
      "uniquefyingPropertyKeys": [],
      "allowedMutationTypes": [
        "DELETE",
        "EXTEND",
        "CHANGEBRANCH",
        "CHANGELINK",
        "ADDLINK",
        "DELETELINK",
        "DELETECHAIN"
      ],
      "vertexType": "MolecularFragment"
    },
    {
      "lstAPs": [
        {
          "id": 124818,
          "atomPositionNumber": 1,
          "atomPositionNumberInMol": 20,
          "apClass": {
            "rule": "SubRM",
            "subClass": 1,
            "bndTyp": "SINGLE"
          },
          "dirVec": {
            "x": 0.2868,
            "y": 0.385,
            "z": -0.643
          }
        }
      ],
      "lstSymAPs": [],
      "mol": {
        "atoms": [
          {
            "elSymbol": "C",
            "p3d": {
              "x": 1.141,
              "y": 1.0262,
              "z": 1.6347
            }
          },
          {
            "elSymbol": "C",
            "p3d": {
              "x": 0.3967,
              "y": -0.0479,
              "z": 0.8227
            }
          },
          {
            "elSymbol": "C",
            "p3d": {
              "x": 1.1459,
              "y": -1.371,
              "z": 0.9201
            }
          },
          {
            "elSymbol": "H",
            "p3d": {
              "x": 2.1461,
              "y": -1.2583,
              "z": 0.4976
            }
          },
          {
            "elSymbol": "H",
            "p3d": {
              "x": 0.6013,
              "y": -2.1408,
              "z": 0.3461
            }
          },
          {
            "elSymbol": "H",
            "p3d": {
              "x": 1.2113,
              "y": -1.6946,
              "z": 1.9559
            }
          },
          {
            "elSymbol": "H",
            "p3d": {
              "x": 2.1541,
              "y": 1.1435,
              "z": 1.2119
            }
          },
          {
            "elSymbol": "H",
            "p3d": {
              "x": 0.6143,
              "y": 1.976,
              "z": 1.5626
            }
          },
          {
            "elSymbol": "H",
            "p3d": {
              "x": 1.2058,
              "y": 0.7088,
              "z": 2.6868
            }
          },
          {
            "elSymbol": "H",
            "p3d": {
              "x": -0.6215,
              "y": -0.1789,
              "z": 1.2377
            }
          }
        ],
        "bonds": [
          {
            "atomIds": [
              0,
              1
            ],
            "bo": "SINGLE"
          },
          {
            "atomIds": [
              1,
              2
            ],
            "bo": "SINGLE"
          },
          {
            "atomIds": [
              2,
              3
            ],
            "bo": "SINGLE"
          },
          {
            "atomIds": [
              2,
              4
            ],
            "bo": "SINGLE"
          },
          {
            "atomIds": [
              2,
              5
            ],
            "bo": "SINGLE"
          },
          {
            "atomIds": [
              0,
              6
            ],
            "bo": "SINGLE"
          },
          {
            "atomIds": [
              0,
              7
            ],
            "bo": "SINGLE"
          },
          {
            "atomIds": [
              0,
              8
            ],
            "bo": "SINGLE"
          },
          {
            "atomIds": [
              1,
              9
            ],
            "bo": "SINGLE"
          }
        ]
      },
      "vertexId": 94742,
      "buildingBlockId": 32,
      "buildingBlockType": "FRAGMENT",
      "isRCV": false,
      "properties": {
        "ATTACHMENT_POINTS": "2#SubRM:1:SINGLE:0.2868%0.3850%-0.6430 "
      },
      "uniquefyingPropertyKeys": [],
      "allowedMutationTypes": [
        "DELETE",
        "EXTEND",
        "CHANGEBRANCH",
        "CHANGELINK",
        "ADDLINK",
        "DELETELINK",
        "DELETECHAIN"
      ],
      "vertexType": "MolecularFragment"
    },
    {
      "lstAPs": [
        {
          "id": 124819,
          "atomPositionNumber": 1,
          "atomPositionNumberInMol": 30,
          "apClass": {
            "rule": "SubRS",
            "subClass": 1,
            "bndTyp": "SINGLE"
          },
          "dirVec": {
            "x": 0.2985,
            "y": 0.384,
            "z": -0.6258
          }
        }
      ],
      "lstSymAPs": [],
      "mol": {
        "atoms": [
          {
            "elSymbol": "C",
            "p3d": {
              "x": -1.0244,
              "y": -0.2225,
              "z": 1.3991
            }
          },
          {
            "elSymbol": "C",
            "p3d": {
              "x": 0.3973,
              "y": -0.042,
              "z": 0.8195
            }
          },
          {
            "elSymbol": "H",
            "p3d": {
              "x": -1.5635,
              "y": -0.9908,
              "z": 0.8263
            }
          },
          {
            "elSymbol": "H",
            "p3d": {
              "x": -0.941,
              "y": -0.535,
              "z": 2.446
            }
          },
          {
            "elSymbol": "H",
            "p3d": {
              "x": -1.5586,
              "y": 0.7335,
              "z": 1.3382
            }
          },
          {
            "elSymbol": "H",
            "p3d": {
              "x": 0.9335,
              "y": 0.7221,
              "z": 1.4011
            }
          },
          {
            "elSymbol": "H",
            "p3d": {
              "x": 0.927,
              "y": -1.0102,
              "z": 0.9001
            }
          }
        ],
        "bonds": [
          {
            "atomIds": [
              0,
              1
            ],
            "bo": "SINGLE"
          },
          {
            "atomIds": [
              0,
              2
            ],
            "bo": "SINGLE"
          },
          {
            "atomIds": [
              0,
              3
            ],
            "bo": "SINGLE"
          },
          {
            "atomIds": [
              0,
              4
            ],
            "bo": "SINGLE"
          },
          {
            "atomIds": [
              1,
              5
            ],
            "bo": "SINGLE"
          },
          {
            "atomIds": [
              1,
              6
            ],
            "bo": "SINGLE"
          }
        ]
      },
      "vertexId": 94732,
      "buildingBlockId": 31,
      "buildingBlockType": "FRAGMENT",
      "isRCV": false,
      "properties": {
        "ATTACHMENT_POINTS": "2#SubRS:1:SINGLE:0.2985%0.3840%-0.6258 "
      },
      "uniquefyingPropertyKeys": [],
      "allowedMutationTypes": [
        "DELETE",
        "EXTEND",
        "CHANGEBRANCH",
        "CHANGELINK",
        "ADDLINK",
        "DELETELINK",
        "DELETECHAIN"
      ],
      "vertexType": "MolecularFragment"
    },
    {
      "lstAPs": [
        {
          "id": 124820,
          "atomPositionNumber": 1,
          "atomPositionNumberInMol": 37,
          "apClass": {
            "rule": "SubRS",
            "subClass": 1,
            "bndTyp": "SINGLE"
          },
          "dirVec": {
            "x": 0.2985,
            "y": 0.384,
            "z": -0.6258
          }
        }
      ],
      "lstSymAPs": [],
      "mol": {
        "atoms": [
          {
            "elSymbol": "C",
            "p3d": {
              "x": -1.0244,
              "y": -0.2225,
              "z": 1.3991
            }
          },
          {
            "elSymbol": "C",
            "p3d": {
              "x": 0.3973,
              "y": -0.042,
              "z": 0.8195
            }
          },
          {
            "elSymbol": "H",
            "p3d": {
              "x": -1.5635,
              "y": -0.9908,
              "z": 0.8263
            }
          },
          {
            "elSymbol": "H",
            "p3d": {
              "x": -0.941,
              "y": -0.535,
              "z": 2.446
            }
          },
          {
            "elSymbol": "H",
            "p3d": {
              "x": -1.5586,
              "y": 0.7335,
              "z": 1.3382
            }
          },
          {
            "elSymbol": "H",
            "p3d": {
              "x": 0.9335,
              "y": 0.7221,
              "z": 1.4011
            }
          },
          {
            "elSymbol": "H",
            "p3d": {
              "x": 0.927,
              "y": -1.0102,
              "z": 0.9001
            }
          }
        ],
        "bonds": [
          {
            "atomIds": [
              0,
              1
            ],
            "bo": "SINGLE"
          },
          {
            "atomIds": [
              0,
              2
            ],
            "bo": "SINGLE"
          },
          {
            "atomIds": [
              0,
              3
            ],
            "bo": "SINGLE"
          },
          {
            "atomIds": [
              0,
              4
            ],
            "bo": "SINGLE"
          },
          {
            "atomIds": [
              1,
              5
            ],
            "bo": "SINGLE"
          },
          {
            "atomIds": [
              1,
              6
            ],
            "bo": "SINGLE"
          }
        ]
      },
      "vertexId": 94896,
      "buildingBlockId": 31,
      "buildingBlockType": "FRAGMENT",
      "isRCV": false,
      "properties": {
        "ATTACHMENT_POINTS": "2#SubRS:1:SINGLE:0.2985%0.3840%-0.6258 "
      },
      "uniquefyingPropertyKeys": [],
      "allowedMutationTypes": [
        "DELETE",
        "EXTEND",
        "CHANGEBRANCH",
        "CHANGELINK",
        "ADDLINK",
        "DELETELINK",
        "DELETECHAIN"
      ],
      "vertexType": "MolecularFragment"
    }
  ],
  "gEdges": [
    {
      "srcAPID": 124773,
      "trgAPID": 124776,
      "bondType": "SINGLE"
    },
    {
      "srcAPID": 124775,
      "trgAPID": 124780,
      "bondType": "SINGLE"
    },
    {
      "srcAPID": 124774,
      "trgAPID": 124781,
      "bondType": "SINGLE"
    },
    {
      "srcAPID": 124779,
      "trgAPID": 124818,
      "bondType": "SINGLE"
    },
    {
      "srcAPID": 124777,
      "trgAPID": 124819,
      "bondType": "SINGLE"
    },
    {
      "srcAPID": 124778,
      "trgAPID": 124820,
      "bondType": "SINGLE"
    }
  ],
  "gRings": [],
  "symVertices": [
    {
      "symIds": [
        94732,
        94896
      ]
    }
  ]
}

> <SMILES>
[Pt](C#O)(OC([H])([H])[H])([P]1(N(C([H])([H])C([H])([H])N1C(C([H])([H])[H])([H])[H])C(C([H])([H])[H])([H])[H])C(C([H])([H])[H])(C([H])([H])[H])[H])C#N

$$$$
