M00005378
  CDK     04222210373D

 39 41  0  0  0  0  0  0  0  0999 V2000
   -2.0806   -1.1431    0.9094 Pt  0  0  0  0  0  0  0  0  0  0  0  0
   -4.0130   -1.1143    1.1583 C   0  0  0  0  0  0  0  0  0  0  0  0
   -5.1441   -1.0937    1.3222 O   0  0  0  0  0  0  0  0  0  0  0  0
   -1.4047    0.4500    1.9970 O   0  0  0  0  0  0  0  0  0  0  0  0
   -2.0957    1.6372    1.6659 C   0  0  0  0  0  0  0  0  0  0  0  0
   -1.5567    2.4457    2.1798 H   0  0  0  0  0  0  0  0  0  0  0  0
   -3.1264    1.5749    2.0361 H   0  0  0  0  0  0  0  0  0  0  0  0
   -2.0729    1.7947    0.5790 H   0  0  0  0  0  0  0  0  0  0  0  0
    0.1853   -0.9979    0.7802 P   0  0  0  0  0  0  0  0  0  0  0  0
    1.0781   -2.5380    0.1456 C   0  0  0  0  0  0  0  0  0  0  0  0
    0.3566   -3.2606   -0.2904 H   0  0  0  0  0  0  0  0  0  0  0  0
    1.7936   -2.2906   -0.6572 H   0  0  0  0  0  0  0  0  0  0  0  0
    1.7621   -3.0873    1.3966 C   0  0  0  0  0  0  0  0  0  0  0  0
    2.6927   -3.6215    1.1212 H   0  0  0  0  0  0  0  0  0  0  0  0
    1.1182   -3.8567    1.8755 H   0  0  0  0  0  0  0  0  0  0  0  0
    2.0813   -1.9718    2.4161 C   0  0  0  0  0  0  0  0  0  0  0  0
    3.0339   -1.4731    2.1444 H   0  0  0  0  0  0  0  0  0  0  0  0
    2.2664   -2.4219    3.4125 H   0  0  0  0  0  0  0  0  0  0  0  0
    0.9451   -0.9563    2.5027 C   0  0  0  0  0  0  0  0  0  0  0  0
    1.2673    0.0578    2.7968 H   0  0  0  0  0  0  0  0  0  0  0  0
    0.1728   -1.2359    3.2525 H   0  0  0  0  0  0  0  0  0  0  0  0
    2.5381    0.7051    0.9963 H   0  0  0  0  0  0  0  0  0  0  0  0
    1.9568    1.0234    0.1268 C   0  0  0  0  0  0  0  0  0  0  0  0
    0.7792    0.4239   -0.2450 C   0  0  0  0  0  0  0  0  0  0  0  0
    1.8002    2.5655   -1.7339 C   0  0  0  0  0  0  0  0  0  0  0  0
    0.0403    0.8641   -1.3882 C   0  0  0  0  0  0  0  0  0  0  0  0
    2.4758    2.1132   -0.6291 C   0  0  0  0  0  0  0  0  0  0  0  0
    0.5732    1.9526   -2.1385 C   0  0  0  0  0  0  0  0  0  0  0  0
   -1.1936    0.2821   -1.8319 C   0  0  0  0  0  0  0  0  0  0  0  0
    3.4099    2.5753   -0.3133 H   0  0  0  0  0  0  0  0  0  0  0  0
    0.3057    3.2628   -3.8541 H   0  0  0  0  0  0  0  0  0  0  0  0
    2.1868    3.3994   -2.3216 H   0  0  0  0  0  0  0  0  0  0  0  0
   -1.8348    0.7577   -2.9488 C   0  0  0  0  0  0  0  0  0  0  0  0
   -1.6475   -0.5640   -1.2921 H   0  0  0  0  0  0  0  0  0  0  0  0
   -2.7690    0.3042   -3.2845 H   0  0  0  0  0  0  0  0  0  0  0  0
   -1.2960    1.8460   -3.6937 C   0  0  0  0  0  0  0  0  0  0  0  0
   -1.8312    2.1979   -4.5747 H   0  0  0  0  0  0  0  0  0  0  0  0
   -0.1211    2.4293   -3.2967 C   0  0  0  0  0  0  0  0  0  0  0  0
   -2.6321   -3.0361   -0.3212 Cl  0  0  0  0  0  0  0  0  0  0  0  0
  2  3  3  0  0  0  0
  1  2  1  0  0  0  0
  5  6  1  0  0  0  0
  5  7  1  0  0  0  0
  5  8  1  0  0  0  0
  4  5  1  0  0  0  0
  1  4  1  0  0  0  0
 10  9  1  0  0  0  0
 11 10  1  0  0  0  0
 12 10  1  0  0  0  0
 13 10  1  0  0  0  0
 14 13  1  0  0  0  0
 15 13  1  0  0  0  0
 16 13  1  0  0  0  0
 16 19  1  0  0  0  0
 17 16  1  0  0  0  0
 18 16  1  0  0  0  0
 19  9  1  0  0  0  0
 20 19  1  0  0  0  0
 21 19  1  0  0  0  0
  1  9  1  0  0  0  0
 22 23  1  0  0  0  0
 23 24  1  0  0  0  0
 23 27  2  0  0  0  0
 24 26  2  0  0  0  0
 26 28  1  0  0  0  0
 25 27  1  0  0  0  0
 25 28  2  0  0  0  0
 29 26  1  0  0  0  0
 28 38  1  0  0  0  0
 29 33  2  0  0  0  0
 33 36  1  0  0  0  0
 36 38  2  0  0  0  0
 25 32  1  0  0  0  0
 27 30  1  0  0  0  0
 29 34  1  0  0  0  0
 31 38  1  0  0  0  0
 36 37  1  0  0  0  0
 33 35  1  0  0  0  0
  9 24  1  0  0  0  0
  1 39  1  0  0  0  0
M  END
> <PM6_ENERGY>
-241.163

> <UID>
PDHYQFBLWJVHGW-DSICDZFENA-M

> <FITNESS>
1.1431

> <GCODE>
6187

> <GraphENC>
6187 72_1_0,80_65_1,104_42_1,88_67_1,122793_39_1, 72_0_80_0_SINGLE_Xlig:0_Xlig:1,72_2_104_1_SINGLE_scaff:0_MPhosphine:1,72_1_88_0_SINGLE_Xlig:0_Xlig:1,104_0_122793_0_SINGLE_LPhosphineSubM:0_SubArM:1, 

> <GraphJson>
{
  "graphId": 6187,
  "gVertices": [
    {
      "lstAPs": [
        {
          "id": 161240,
          "atomPositionNumber": 0,
          "atomPositionNumberInMol": 0,
          "apClass": {
            "rule": "Xlig",
            "subClass": 0,
            "bndTyp": "SINGLE"
          },
          "dirVec": {
            "x": -2.3339,
            "y": -0.0087,
            "z": 0.8172
          }
        },
        {
          "id": 161241,
          "atomPositionNumber": 0,
          "atomPositionNumberInMol": 0,
          "apClass": {
            "rule": "Xlig",
            "subClass": 0,
            "bndTyp": "SINGLE"
          },
          "dirVec": {
            "x": 2.336,
            "y": -5.0E-4,
            "z": 0.829
          }
        },
        {
          "id": 161242,
          "atomPositionNumber": 0,
          "atomPositionNumberInMol": 0,
          "apClass": {
            "rule": "scaff",
            "subClass": 0,
            "bndTyp": "SINGLE"
          },
          "dirVec": {
            "x": -0.0095,
            "y": 0.0046,
            "z": -1.7113
          }
        }
      ],
      "lstSymAPs": [
        {
          "symIds": [
            0,
            1
          ]
        }
      ],
      "mol": {
        "atoms": [
          {
            "elSymbol": "Pt",
            "p3d": {
              "x": -0.0098,
              "y": 0.0049,
              "z": 0.6289
            }
          },
          {
            "elSymbol": "C",
            "p3d": {
              "x": -6.0E-4,
              "y": 0.0016,
              "z": 2.5609
            }
          },
          {
            "elSymbol": "O",
            "p3d": {
              "x": 0.0025,
              "y": -0.0041,
              "z": 3.6974
            }
          },
          {
            "elSymbol": "Du",
            "p3d": {
              "x": -0.007,
              "y": 1.0013,
              "z": 0.6372
            }
          },
          {
            "elSymbol": "Du",
            "p3d": {
              "x": -0.0014,
              "y": 0.9902,
              "z": 2.5698
            }
          }
        ],
        "bonds": [
          {
            "atomIds": [
              1,
              2
            ],
            "bo": "TRIPLE"
          },
          {
            "atomIds": [
              0,
              1
            ],
            "bo": "SINGLE"
          },
          {
            "atomIds": [
              3,
              0
            ],
            "bo": "SINGLE"
          },
          {
            "atomIds": [
              4,
              1
            ],
            "bo": "SINGLE"
          }
        ]
      },
      "vertexId": 72,
      "buildingBlockId": 0,
      "buildingBlockType": "SCAFFOLD",
      "isRCV": false,
      "properties": {
        "ATTACHMENT_POINTS": "1#Xlig:0:SINGLE:-2.3339%-0.0087%0.8172,Xlig:0:SINGLE:2.3360%-0.0005%0.8290,scaff:0:SINGLE:-0.0095%0.0046%-1.7113 "
      },
      "uniquefyingPropertyKeys": [],
      "allowedMutationTypes": [
        "DELETE",
        "EXTEND",
        "CHANGEBRANCH",
        "CHANGELINK",
        "ADDLINK",
        "DELETELINK",
        "DELETECHAIN"
      ],
      "vertexType": "MolecularFragment"
    },
    {
      "lstAPs": [
        {
          "id": 161243,
          "atomPositionNumber": 0,
          "atomPositionNumberInMol": 5,
          "apClass": {
            "rule": "Xlig",
            "subClass": 1,
            "bndTyp": "SINGLE"
          },
          "dirVec": {
            "x": -0.1753,
            "y": 0.0948,
            "z": -0.4464
          }
        }
      ],
      "lstSymAPs": [],
      "mol": {
        "atoms": [
          {
            "elSymbol": "O",
            "p3d": {
              "x": -0.3534,
              "y": 2.1044,
              "z": -0.7339
            }
          },
          {
            "elSymbol": "C",
            "p3d": {
              "x": -0.5345,
              "y": 2.7646,
              "z": 0.4801
            }
          },
          {
            "elSymbol": "H",
            "p3d": {
              "x": -0.3728,
              "y": 3.8337,
              "z": 0.2724
            }
          },
          {
            "elSymbol": "H",
            "p3d": {
              "x": 0.1816,
              "y": 2.4161,
              "z": 1.2384
            }
          },
          {
            "elSymbol": "H",
            "p3d": {
              "x": -1.553,
              "y": 2.6149,
              "z": 0.8489
            }
          }
        ],
        "bonds": [
          {
            "atomIds": [
              1,
              2
            ],
            "bo": "SINGLE"
          },
          {
            "atomIds": [
              1,
              3
            ],
            "bo": "SINGLE"
          },
          {
            "atomIds": [
              1,
              4
            ],
            "bo": "SINGLE"
          },
          {
            "atomIds": [
              0,
              1
            ],
            "bo": "SINGLE"
          }
        ]
      },
      "vertexId": 80,
      "buildingBlockId": 64,
      "buildingBlockType": "FRAGMENT",
      "isRCV": false,
      "properties": {
        "ATTACHMENT_POINTS": "1#Xlig:1:SINGLE:-0.1753%0.0948%-0.4464 "
      },
      "uniquefyingPropertyKeys": [],
      "allowedMutationTypes": [
        "DELETE",
        "EXTEND",
        "CHANGEBRANCH",
        "CHANGELINK",
        "ADDLINK",
        "DELETELINK",
        "DELETECHAIN"
      ],
      "vertexType": "MolecularFragment"
    },
    {
      "lstAPs": [
        {
          "id": 161244,
          "atomPositionNumber": 0,
          "atomPositionNumberInMol": 10,
          "apClass": {
            "rule": "LPhosphineSubM",
            "subClass": 0,
            "bndTyp": "SINGLE"
          },
          "dirVec": {
            "x": 2.723,
            "y": 1.7542,
            "z": 13.2677
          }
        },
        {
          "id": 161245,
          "atomPositionNumber": 0,
          "atomPositionNumberInMol": 10,
          "apClass": {
            "rule": "MPhosphine",
            "subClass": 1,
            "bndTyp": "SINGLE"
          },
          "dirVec": {
            "x": 4.8307,
            "y": -0.2673,
            "z": 11.5812
          }
        }
      ],
      "lstSymAPs": [],
      "mol": {
        "atoms": [
          {
            "elSymbol": "P",
            "p3d": {
              "x": 3.2259,
              "y": 1.2767,
              "z": 11.5745
            }
          },
          {
            "elSymbol": "C",
            "p3d": {
              "x": 1.6598,
              "y": 0.7995,
              "z": 10.6875
            }
          },
          {
            "elSymbol": "H",
            "p3d": {
              "x": 1.6974,
              "y": -0.248,
              "z": 10.3885
            }
          },
          {
            "elSymbol": "H",
            "p3d": {
              "x": 0.7981,
              "y": 0.9391,
              "z": 11.3443
            }
          },
          {
            "elSymbol": "C",
            "p3d": {
              "x": 1.5701,
              "y": 1.7203,
              "z": 9.4939
            }
          },
          {
            "elSymbol": "H",
            "p3d": {
              "x": 0.5288,
              "y": 1.8359,
              "z": 9.1795
            }
          },
          {
            "elSymbol": "H",
            "p3d": {
              "x": 2.1382,
              "y": 1.3052,
              "z": 8.655
            }
          },
          {
            "elSymbol": "C",
            "p3d": {
              "x": 2.1438,
              "y": 3.0759,
              "z": 9.8936
            }
          },
          {
            "elSymbol": "H",
            "p3d": {
              "x": 1.4578,
              "y": 3.5682,
              "z": 10.5909
            }
          },
          {
            "elSymbol": "H",
            "p3d": {
              "x": 2.2815,
              "y": 3.6992,
              "z": 9.0137
            }
          },
          {
            "elSymbol": "C",
            "p3d": {
              "x": 3.4838,
              "y": 2.7861,
              "z": 10.5731
            }
          },
          {
            "elSymbol": "H",
            "p3d": {
              "x": 3.7886,
              "y": 3.6232,
              "z": 11.214
            }
          },
          {
            "elSymbol": "H",
            "p3d": {
              "x": 4.2729,
              "y": 2.6329,
              "z": 9.835
            }
          }
        ],
        "bonds": [
          {
            "atomIds": [
              1,
              0
            ],
            "bo": "SINGLE"
          },
          {
            "atomIds": [
              2,
              1
            ],
            "bo": "SINGLE"
          },
          {
            "atomIds": [
              3,
              1
            ],
            "bo": "SINGLE"
          },
          {
            "atomIds": [
              4,
              1
            ],
            "bo": "SINGLE"
          },
          {
            "atomIds": [
              5,
              4
            ],
            "bo": "SINGLE"
          },
          {
            "atomIds": [
              6,
              4
            ],
            "bo": "SINGLE"
          },
          {
            "atomIds": [
              7,
              4
            ],
            "bo": "SINGLE"
          },
          {
            "atomIds": [
              7,
              10
            ],
            "bo": "SINGLE"
          },
          {
            "atomIds": [
              8,
              7
            ],
            "bo": "SINGLE"
          },
          {
            "atomIds": [
              9,
              7
            ],
            "bo": "SINGLE"
          },
          {
            "atomIds": [
              10,
              0
            ],
            "bo": "SINGLE"
          },
          {
            "atomIds": [
              11,
              10
            ],
            "bo": "SINGLE"
          },
          {
            "atomIds": [
              12,
              10
            ],
            "bo": "SINGLE"
          }
        ]
      },
      "vertexId": 104,
      "buildingBlockId": 41,
      "buildingBlockType": "FRAGMENT",
      "isRCV": false,
      "properties": {
        "ATTACHMENT_POINTS": "1#LPhosphineSubM:0:SINGLE:2.7230%1.7542%13.2677,MPhosphine:1:SINGLE:4.8307%-0.2673%11.5812 "
      },
      "uniquefyingPropertyKeys": [],
      "allowedMutationTypes": [
        "DELETE",
        "EXTEND",
        "CHANGEBRANCH",
        "CHANGELINK",
        "ADDLINK",
        "DELETELINK",
        "DELETECHAIN"
      ],
      "vertexType": "MolecularFragment"
    },
    {
      "lstAPs": [
        {
          "id": 161246,
          "atomPositionNumber": 0,
          "atomPositionNumberInMol": 40,
          "apClass": {
            "rule": "Xlig",
            "subClass": 1,
            "bndTyp": "SINGLE"
          },
          "dirVec": {
            "x": -0.0053,
            "y": -0.0027,
            "z": 0.63
          }
        }
      ],
      "lstSymAPs": [],
      "mol": {
        "atoms": [
          {
            "elSymbol": "Cl",
            "p3d": {
              "x": 2.3243,
              "y": -0.0063,
              "z": 0.8189
            }
          }
        ],
        "bonds": []
      },
      "vertexId": 88,
      "buildingBlockId": 66,
      "buildingBlockType": "FRAGMENT",
      "isRCV": false,
      "properties": {
        "ATTACHMENT_POINTS": "1#Xlig:1:SINGLE:-0.0053%-0.0027%0.6300 "
      },
      "uniquefyingPropertyKeys": [],
      "allowedMutationTypes": [
        "DELETE",
        "EXTEND",
        "CHANGEBRANCH",
        "CHANGELINK",
        "ADDLINK",
        "DELETELINK",
        "DELETECHAIN"
      ],
      "vertexType": "MolecularFragment"
    },
    {
      "lstAPs": [
        {
          "id": 161271,
          "atomPositionNumber": 2,
          "atomPositionNumberInMol": 25,
          "apClass": {
            "rule": "SubArM",
            "subClass": 1,
            "bndTyp": "SINGLE"
          },
          "dirVec": {
            "x": 0.2839,
            "y": 0.3907,
            "z": -0.6271
          }
        }
      ],
      "lstSymAPs": [],
      "mol": {
        "atoms": [
          {
            "elSymbol": "H",
            "p3d": {
              "x": 1.8079,
              "y": 2.6521,
              "z": -0.6457
            }
          },
          {
            "elSymbol": "C",
            "p3d": {
              "x": 2.3292,
              "y": 1.8028,
              "z": -1.1346
            }
          },
          {
            "elSymbol": "C",
            "p3d": {
              "x": 1.6928,
              "y": 0.5701,
              "z": -1.2214
            }
          },
          {
            "elSymbol": "C",
            "p3d": {
              "x": 4.26,
              "y": 0.9161,
              "z": -2.2564
            }
          },
          {
            "elSymbol": "C",
            "p3d": {
              "x": 2.3547,
              "y": -0.5116,
              "z": -1.8205
            }
          },
          {
            "elSymbol": "C",
            "p3d": {
              "x": 3.6118,
              "y": 1.9867,
              "z": -1.654
            }
          },
          {
            "elSymbol": "C",
            "p3d": {
              "x": 3.6519,
              "y": -0.333,
              "z": -2.339
            }
          },
          {
            "elSymbol": "C",
            "p3d": {
              "x": 1.7318,
              "y": -1.7781,
              "z": -1.8989
            }
          },
          {
            "elSymbol": "H",
            "p3d": {
              "x": 4.0936,
              "y": 2.9609,
              "z": -1.5808
            }
          },
          {
            "elSymbol": "H",
            "p3d": {
              "x": 5.3077,
              "y": -1.3005,
              "z": -3.3639
            }
          },
          {
            "elSymbol": "H",
            "p3d": {
              "x": 5.2705,
              "y": 1.0583,
              "z": -2.6578
            }
          },
          {
            "elSymbol": "C",
            "p3d": {
              "x": 2.3998,
              "y": -2.8526,
              "z": -2.5007
            }
          },
          {
            "elSymbol": "H",
            "p3d": {
              "x": 0.724,
              "y": -1.9306,
              "z": -1.4908
            }
          },
          {
            "elSymbol": "H",
            "p3d": {
              "x": 1.9155,
              "y": -3.8304,
              "z": -2.576
            }
          },
          {
            "elSymbol": "C",
            "p3d": {
              "x": 3.684,
              "y": -2.6697,
              "z": -3.0355
            }
          },
          {
            "elSymbol": "H",
            "p3d": {
              "x": 4.2028,
              "y": -3.5195,
              "z": -3.4955
            }
          },
          {
            "elSymbol": "C",
            "p3d": {
              "x": 4.3092,
              "y": -1.4197,
              "z": -2.9387
            }
          }
        ],
        "bonds": [
          {
            "atomIds": [
              0,
              1
            ],
            "bo": "SINGLE"
          },
          {
            "atomIds": [
              1,
              2
            ],
            "bo": "SINGLE"
          },
          {
            "atomIds": [
              1,
              5
            ],
            "bo": "DOUBLE"
          },
          {
            "atomIds": [
              2,
              4
            ],
            "bo": "DOUBLE"
          },
          {
            "atomIds": [
              4,
              6
            ],
            "bo": "SINGLE"
          },
          {
            "atomIds": [
              3,
              5
            ],
            "bo": "SINGLE"
          },
          {
            "atomIds": [
              3,
              6
            ],
            "bo": "DOUBLE"
          },
          {
            "atomIds": [
              7,
              4
            ],
            "bo": "SINGLE"
          },
          {
            "atomIds": [
              6,
              16
            ],
            "bo": "SINGLE"
          },
          {
            "atomIds": [
              7,
              11
            ],
            "bo": "DOUBLE"
          },
          {
            "atomIds": [
              11,
              14
            ],
            "bo": "SINGLE"
          },
          {
            "atomIds": [
              14,
              16
            ],
            "bo": "DOUBLE"
          },
          {
            "atomIds": [
              3,
              10
            ],
            "bo": "SINGLE"
          },
          {
            "atomIds": [
              5,
              8
            ],
            "bo": "SINGLE"
          },
          {
            "atomIds": [
              7,
              12
            ],
            "bo": "SINGLE"
          },
          {
            "atomIds": [
              9,
              16
            ],
            "bo": "SINGLE"
          },
          {
            "atomIds": [
              14,
              15
            ],
            "bo": "SINGLE"
          },
          {
            "atomIds": [
              11,
              13
            ],
            "bo": "SINGLE"
          }
        ]
      },
      "vertexId": 122793,
      "buildingBlockId": 38,
      "buildingBlockType": "FRAGMENT",
      "isRCV": false,
      "properties": {
        "ATTACHMENT_POINTS": "3#SubArM:1:SINGLE:0.2839%0.3907%-0.6271 "
      },
      "uniquefyingPropertyKeys": [],
      "allowedMutationTypes": [
        "DELETE",
        "EXTEND",
        "CHANGEBRANCH",
        "CHANGELINK",
        "ADDLINK",
        "DELETELINK",
        "DELETECHAIN"
      ],
      "vertexType": "MolecularFragment"
    }
  ],
  "gEdges": [
    {
      "srcAPID": 161240,
      "trgAPID": 161243,
      "bondType": "SINGLE"
    },
    {
      "srcAPID": 161242,
      "trgAPID": 161245,
      "bondType": "SINGLE"
    },
    {
      "srcAPID": 161241,
      "trgAPID": 161246,
      "bondType": "SINGLE"
    },
    {
      "srcAPID": 161244,
      "trgAPID": 161271,
      "bondType": "SINGLE"
    }
  ],
  "gRings": [],
  "symVertices": []
}

> <SMILES>
[Pt](C#O)(OC([H])([H])[H])([P]1(C([H])([H])C([H])([H])C(C1([H])[H])([H])[H])C=2C([H])=C(C(=C3C2C(=C(C(=C3[H])[H])[H])[H])[H])[H])Cl

$$$$
