M00000889
  CDK     04222208573D

 71 75  0  0  0  0  0  0  0  0999 V2000
   -2.8085   -0.1843    0.2312 Pt  0  0  0  0  0  0  0  0  0  0  0  0
   -4.7491   -0.0336    0.1793 C   0  0  0  0  0  0  0  0  0  0  0  0
   -5.8849    0.0725    0.1486 O   0  0  0  0  0  0  0  0  0  0  0  0
   -2.9233    2.1004   -0.0831 S   0  0  0  0  0  0  0  0  0  0  0  0
   -2.6600    2.1515   -1.8730 C   0  0  0  0  0  0  0  0  0  0  0  0
   -3.4341    2.7701   -2.3409 H   0  0  0  0  0  0  0  0  0  0  0  0
   -2.7074    1.1386   -2.3128 H   0  0  0  0  0  0  0  0  0  0  0  0
   -1.6798    2.5835   -2.1008 H   0  0  0  0  0  0  0  0  0  0  0  0
    0.1521    0.0300   -1.4689 C   0  0  0  0  0  0  0  0  0  0  0  0
    0.9350    1.1283   -1.4051 C   0  0  0  0  0  0  0  0  0  0  0  0
    1.6039    1.7253   -2.6051 C   0  0  0  0  0  0  0  0  0  0  0  0
    0.8303    2.2569   -3.2049 H   0  0  0  0  0  0  0  0  0  0  0  0
    1.9885    0.9203   -3.2675 H   0  0  0  0  0  0  0  0  0  0  0  0
    2.7418    2.6932   -2.2636 C   0  0  0  0  0  0  0  0  0  0  0  0
    3.6281    2.1287   -1.9134 H   0  0  0  0  0  0  0  0  0  0  0  0
    3.0640    3.2292   -3.1768 H   0  0  0  0  0  0  0  0  0  0  0  0
    2.2970    3.6900   -1.1906 C   0  0  0  0  0  0  0  0  0  0  0  0
    1.4079    4.2526   -1.5388 H   0  0  0  0  0  0  0  0  0  0  0  0
    3.0856    4.4462   -1.0157 H   0  0  0  0  0  0  0  0  0  0  0  0
    1.9742    2.9623    0.1181 C   0  0  0  0  0  0  0  0  0  0  0  0
    2.9164    2.6235    0.6033 H   0  0  0  0  0  0  0  0  0  0  0  0
    1.5133    3.6762    0.8372 H   0  0  0  0  0  0  0  0  0  0  0  0
    1.0792    1.7745   -0.0589 C   0  0  0  0  0  0  0  0  0  0  0  0
    0.3920    1.2159    0.9594 C   0  0  0  0  0  0  0  0  0  0  0  0
   -0.5099   -0.2521    0.2468 P   0  0  0  0  0  0  0  0  0  0  0  0
    0.3491    1.6008    2.3994 C   0  0  0  0  0  0  0  0  0  0  0  0
   -1.0141    1.9037    4.5049 C   0  0  0  0  0  0  0  0  0  0  0  0
    1.4332    1.2583    4.6619 C   0  0  0  0  0  0  0  0  0  0  0  0
    0.0467    1.1411    5.3107 C   0  0  0  0  0  0  0  0  0  0  0  0
    1.4031    0.7978    3.1985 C   0  0  0  0  0  0  0  0  0  0  0  0
   -1.0470    1.4428    3.0401 C   0  0  0  0  0  0  0  0  0  0  0  0
   -0.8142    2.9913    4.5534 H   0  0  0  0  0  0  0  0  0  0  0  0
    1.7876    2.3049    4.7223 H   0  0  0  0  0  0  0  0  0  0  0  0
   -0.2400    0.0745    5.3887 H   0  0  0  0  0  0  0  0  0  0  0  0
    1.1761   -0.2851    3.1556 H   0  0  0  0  0  0  0  0  0  0  0  0
   -1.3983    0.3938    2.9990 H   0  0  0  0  0  0  0  0  0  0  0  0
    0.6206    2.6910    2.4701 H   0  0  0  0  0  0  0  0  0  0  0  0
   -2.0113    1.7583    4.9624 H   0  0  0  0  0  0  0  0  0  0  0  0
    2.1661    0.6542    5.2290 H   0  0  0  0  0  0  0  0  0  0  0  0
    0.0812    1.5252    6.3470 H   0  0  0  0  0  0  0  0  0  0  0  0
    2.4001    0.9195    2.7391 H   0  0  0  0  0  0  0  0  0  0  0  0
   -1.7909    2.0426    2.4763 H   0  0  0  0  0  0  0  0  0  0  0  0
   -0.2322   -0.8021   -2.6463 C   0  0  0  0  0  0  0  0  0  0  0  0
    0.3602   -2.8004   -4.0752 C   0  0  0  0  0  0  0  0  0  0  0  0
   -2.0483   -2.0083   -3.9138 C   0  0  0  0  0  0  0  0  0  0  0  0
   -1.1181   -3.2137   -4.1141 C   0  0  0  0  0  0  0  0  0  0  0  0
   -1.7092   -1.2590   -2.6167 C   0  0  0  0  0  0  0  0  0  0  0  0
    0.6908   -2.0344   -2.7861 C   0  0  0  0  0  0  0  0  0  0  0  0
    0.5993   -2.1780   -4.9581 H   0  0  0  0  0  0  0  0  0  0  0  0
   -1.9758   -1.3258   -4.7810 H   0  0  0  0  0  0  0  0  0  0  0  0
   -1.3153   -3.9663   -3.3245 H   0  0  0  0  0  0  0  0  0  0  0  0
   -1.9108   -1.9350   -1.7557 H   0  0  0  0  0  0  0  0  0  0  0  0
    0.5632   -2.7081   -1.9160 H   0  0  0  0  0  0  0  0  0  0  0  0
   -0.1017   -0.1716   -3.5682 H   0  0  0  0  0  0  0  0  0  0  0  0
    1.0021   -3.6982   -4.1509 H   0  0  0  0  0  0  0  0  0  0  0  0
   -3.1006   -2.3511   -3.8793 H   0  0  0  0  0  0  0  0  0  0  0  0
   -1.3465   -3.7113   -5.0745 H   0  0  0  0  0  0  0  0  0  0  0  0
   -2.3867   -0.3807   -2.4918 H   0  0  0  0  0  0  0  0  0  0  0  0
    1.7493   -1.7212   -2.7879 H   0  0  0  0  0  0  0  0  0  0  0  0
    0.2536   -1.7502    1.0055 C   0  0  0  0  0  0  0  0  0  0  0  0
    1.4087   -3.9874    2.1855 C   0  0  0  0  0  0  0  0  0  0  0  0
   -0.4384   -2.4232    2.0128 C   0  0  0  0  0  0  0  0  0  0  0  0
    1.5198   -2.1686    0.5866 C   0  0  0  0  0  0  0  0  0  0  0  0
    2.0966   -3.2945    1.1813 C   0  0  0  0  0  0  0  0  0  0  0  0
    0.1486   -3.5524    2.6016 C   0  0  0  0  0  0  0  0  0  0  0  0
   -1.4297   -2.1078    2.3595 H   0  0  0  0  0  0  0  0  0  0  0  0
    2.0731   -1.6419   -0.1940 H   0  0  0  0  0  0  0  0  0  0  0  0
    3.0795   -3.6358    0.8620 H   0  0  0  0  0  0  0  0  0  0  0  0
   -0.3900   -4.0950    3.3784 H   0  0  0  0  0  0  0  0  0  0  0  0
    1.8584   -4.8695    2.6414 H   0  0  0  0  0  0  0  0  0  0  0  0
   -3.3008   -2.5227    0.5569 Cl  0  0  0  0  0  0  0  0  0  0  0  0
  2  3  3  0  0  0  0
  1  2  1  0  0  0  0
  5  6  1  0  0  0  0
  5  7  1  0  0  0  0
  5  8  1  0  0  0  0
  4  5  1  0  0  0  0
  1  4  1  0  0  0  0
  9 10  2  0  0  0  0
 10 11  1  0  0  0  0
 11 12  1  0  0  0  0
 13 11  1  0  0  0  0
 14 11  1  0  0  0  0
 15 14  1  0  0  0  0
 16 14  1  0  0  0  0
 17 14  1  0  0  0  0
 18 17  1  0  0  0  0
 19 17  1  0  0  0  0
 20 17  1  0  0  0  0
 20 23  1  0  0  0  0
 21 20  1  0  0  0  0
 22 20  1  0  0  0  0
 23 10  1  0  0  0  0
 24 23  2  0  0  0  0
 24 25  1  0  0  0  0
 25  9  1  0  0  0  0
  1 25  1  0  0  0  0
 26 37  1  0  0  0  0
 26 30  1  0  0  0  0
 26 31  1  0  0  0  0
 27 32  1  0  0  0  0
 27 38  1  0  0  0  0
 27 29  1  0  0  0  0
 27 31  1  0  0  0  0
 28 33  1  0  0  0  0
 28 39  1  0  0  0  0
 28 30  1  0  0  0  0
 28 29  1  0  0  0  0
 29 34  1  0  0  0  0
 29 40  1  0  0  0  0
 30 35  1  0  0  0  0
 30 41  1  0  0  0  0
 31 36  1  0  0  0  0
 31 42  1  0  0  0  0
 24 26  1  0  0  0  0
 43 54  1  0  0  0  0
 43 47  1  0  0  0  0
 43 48  1  0  0  0  0
 44 49  1  0  0  0  0
 44 55  1  0  0  0  0
 44 46  1  0  0  0  0
 44 48  1  0  0  0  0
 45 50  1  0  0  0  0
 45 56  1  0  0  0  0
 45 47  1  0  0  0  0
 45 46  1  0  0  0  0
 46 51  1  0  0  0  0
 46 57  1  0  0  0  0
 47 52  1  0  0  0  0
 47 58  1  0  0  0  0
 48 53  1  0  0  0  0
 48 59  1  0  0  0  0
  9 43  1  0  0  0  0
 60 63  1  0  0  0  0
 63 64  2  0  0  0  0
 61 64  1  0  0  0  0
 61 65  2  0  0  0  0
 62 65  1  0  0  0  0
 60 62  2  0  0  0  0
 64 68  1  0  0  0  0
 65 69  1  0  0  0  0
 61 70  1  0  0  0  0
 62 66  1  0  0  0  0
 63 67  1  0  0  0  0
 25 60  1  0  0  0  0
  1 71  1  0  0  0  0
M  END
> <PM6_ENERGY>
-251.143

> <UID>
ICBVUNLDERURPH-FTWQDPFWNA-L

> <FITNESS>
1.14116

> <GCODE>
1490

> <GraphENC>
1490 72_1_0,79_64_1,113_53_1,88_67_1,25080_35_1,24686_35_1,24695_36_1, 72_0_79_0_SINGLE_Xlig:0_Xlig:1,72_2_113_3_SINGLE_scaff:0_MPhosphole:1,72_1_88_0_SINGLE_Xlig:0_Xlig:1,113_1_25080_0_SINGLE_LPhospholeSubAlpha:0_SubRM:1,113_0_24686_0_SINGLE_LPhospholeSubAlpha:0_SubRM:1,113_2_24695_0_SINGLE_LPhospholeSubR:0_SubArS:1, SymmetricSet [symIds=[25080, 24686]] 

> <GraphJson>
{
  "graphId": 1490,
  "gVertices": [
    {
      "lstAPs": [
        {
          "id": 34393,
          "atomPositionNumber": 0,
          "atomPositionNumberInMol": 0,
          "apClass": {
            "rule": "Xlig",
            "subClass": 0,
            "bndTyp": "SINGLE"
          },
          "dirVec": {
            "x": -2.3339,
            "y": -0.0087,
            "z": 0.8172
          }
        },
        {
          "id": 34394,
          "atomPositionNumber": 0,
          "atomPositionNumberInMol": 0,
          "apClass": {
            "rule": "Xlig",
            "subClass": 0,
            "bndTyp": "SINGLE"
          },
          "dirVec": {
            "x": 2.336,
            "y": -5.0E-4,
            "z": 0.829
          }
        },
        {
          "id": 34395,
          "atomPositionNumber": 0,
          "atomPositionNumberInMol": 0,
          "apClass": {
            "rule": "scaff",
            "subClass": 0,
            "bndTyp": "SINGLE"
          },
          "dirVec": {
            "x": -0.0095,
            "y": 0.0046,
            "z": -1.7113
          }
        }
      ],
      "lstSymAPs": [
        {
          "symIds": [
            0,
            1
          ]
        }
      ],
      "mol": {
        "atoms": [
          {
            "elSymbol": "Pt",
            "p3d": {
              "x": -0.0098,
              "y": 0.0049,
              "z": 0.6289
            }
          },
          {
            "elSymbol": "C",
            "p3d": {
              "x": -6.0E-4,
              "y": 0.0016,
              "z": 2.5609
            }
          },
          {
            "elSymbol": "O",
            "p3d": {
              "x": 0.0025,
              "y": -0.0041,
              "z": 3.6974
            }
          },
          {
            "elSymbol": "Du",
            "p3d": {
              "x": -0.007,
              "y": 1.0013,
              "z": 0.6372
            }
          },
          {
            "elSymbol": "Du",
            "p3d": {
              "x": -0.0014,
              "y": 0.9902,
              "z": 2.5698
            }
          }
        ],
        "bonds": [
          {
            "atomIds": [
              1,
              2
            ],
            "bo": "TRIPLE"
          },
          {
            "atomIds": [
              0,
              1
            ],
            "bo": "SINGLE"
          },
          {
            "atomIds": [
              3,
              0
            ],
            "bo": "SINGLE"
          },
          {
            "atomIds": [
              4,
              1
            ],
            "bo": "SINGLE"
          }
        ]
      },
      "vertexId": 72,
      "buildingBlockId": 0,
      "buildingBlockType": "SCAFFOLD",
      "isRCV": false,
      "properties": {
        "ATTACHMENT_POINTS": "1#Xlig:0:SINGLE:-2.3339%-0.0087%0.8172,Xlig:0:SINGLE:2.3360%-0.0005%0.8290,scaff:0:SINGLE:-0.0095%0.0046%-1.7113 "
      },
      "uniquefyingPropertyKeys": [],
      "allowedMutationTypes": [
        "DELETE",
        "EXTEND",
        "CHANGEBRANCH",
        "CHANGELINK",
        "ADDLINK",
        "DELETELINK",
        "DELETECHAIN"
      ],
      "vertexType": "MolecularFragment"
    },
    {
      "lstAPs": [
        {
          "id": 34396,
          "atomPositionNumber": 0,
          "atomPositionNumberInMol": 5,
          "apClass": {
            "rule": "Xlig",
            "subClass": 1,
            "bndTyp": "SINGLE"
          },
          "dirVec": {
            "x": -0.102,
            "y": 0.0185,
            "z": -1.0265
          }
        }
      ],
      "lstSymAPs": [],
      "mol": {
        "atoms": [
          {
            "elSymbol": "S",
            "p3d": {
              "x": -0.3267,
              "y": 2.3403,
              "z": -1.0022
            }
          },
          {
            "elSymbol": "C",
            "p3d": {
              "x": -0.626,
              "y": 2.4866,
              "z": 0.7805
            }
          },
          {
            "elSymbol": "H",
            "p3d": {
              "x": 0.1766,
              "y": 3.089,
              "z": 1.2414
            }
          },
          {
            "elSymbol": "H",
            "p3d": {
              "x": -0.651,
              "y": 1.5065,
              "z": 1.2643
            }
          },
          {
            "elSymbol": "H",
            "p3d": {
              "x": -1.5658,
              "y": 2.981,
              "z": 0.9515
            }
          }
        ],
        "bonds": [
          {
            "atomIds": [
              1,
              2
            ],
            "bo": "SINGLE"
          },
          {
            "atomIds": [
              1,
              3
            ],
            "bo": "SINGLE"
          },
          {
            "atomIds": [
              1,
              4
            ],
            "bo": "SINGLE"
          },
          {
            "atomIds": [
              0,
              1
            ],
            "bo": "SINGLE"
          }
        ]
      },
      "vertexId": 79,
      "buildingBlockId": 63,
      "buildingBlockType": "FRAGMENT",
      "isRCV": false,
      "properties": {
        "ATTACHMENT_POINTS": "1#Xlig:1:SINGLE:-0.1020%0.0185%-1.0265 "
      },
      "uniquefyingPropertyKeys": [],
      "allowedMutationTypes": [
        "DELETE",
        "EXTEND",
        "CHANGEBRANCH",
        "CHANGELINK",
        "ADDLINK",
        "DELETELINK",
        "DELETECHAIN"
      ],
      "vertexType": "MolecularFragment"
    },
    {
      "lstAPs": [
        {
          "id": 34397,
          "atomPositionNumber": 0,
          "atomPositionNumberInMol": 10,
          "apClass": {
            "rule": "LPhospholeSubAlpha",
            "subClass": 0,
            "bndTyp": "SINGLE"
          },
          "dirVec": {
            "x": -0.8999,
            "y": 5.4204,
            "z": 13.4669
          }
        },
        {
          "id": 34398,
          "atomPositionNumber": 15,
          "atomPositionNumberInMol": 25,
          "apClass": {
            "rule": "LPhospholeSubAlpha",
            "subClass": 0,
            "bndTyp": "SINGLE"
          },
          "dirVec": {
            "x": 3.5623,
            "y": 2.5529,
            "z": 12.0521
          }
        },
        {
          "id": 34399,
          "atomPositionNumber": 16,
          "atomPositionNumberInMol": 26,
          "apClass": {
            "rule": "LPhospholeSubR",
            "subClass": 0,
            "bndTyp": "SINGLE"
          },
          "dirVec": {
            "x": 2.0225,
            "y": 5.5716,
            "z": 11.2441
          }
        },
        {
          "id": 34400,
          "atomPositionNumber": 16,
          "atomPositionNumberInMol": 26,
          "apClass": {
            "rule": "MPhosphole",
            "subClass": 1,
            "bndTyp": "SINGLE"
          },
          "dirVec": {
            "x": -0.1011,
            "y": 3.0668,
            "z": 10.3957
          }
        }
      ],
      "lstSymAPs": [
        {
          "symIds": [
            0,
            1
          ]
        }
      ],
      "mol": {
        "atoms": [
          {
            "elSymbol": "C",
            "p3d": {
              "x": 0.2969,
              "y": 4.5574,
              "z": 13.4258
            }
          },
          {
            "elSymbol": "C",
            "p3d": {
              "x": 0.8881,
              "y": 3.9044,
              "z": 14.4404
            }
          },
          {
            "elSymbol": "C",
            "p3d": {
              "x": 0.3791,
              "y": 3.8614,
              "z": 15.8547
            }
          },
          {
            "elSymbol": "H",
            "p3d": {
              "x": -0.4577,
              "y": 3.1638,
              "z": 15.8925
            }
          },
          {
            "elSymbol": "H",
            "p3d": {
              "x": 0.0028,
              "y": 4.8434,
              "z": 16.1153
            }
          },
          {
            "elSymbol": "C",
            "p3d": {
              "x": 1.435,
              "y": 3.4448,
              "z": 16.8579
            }
          },
          {
            "elSymbol": "H",
            "p3d": {
              "x": 2.1653,
              "y": 4.2406,
              "z": 16.9817
            }
          },
          {
            "elSymbol": "H",
            "p3d": {
              "x": 0.9586,
              "y": 3.2608,
              "z": 17.8327
            }
          },
          {
            "elSymbol": "C",
            "p3d": {
              "x": 2.1393,
              "y": 2.1908,
              "z": 16.397
            }
          },
          {
            "elSymbol": "H",
            "p3d": {
              "x": 1.413,
              "y": 1.4059,
              "z": 16.2173
            }
          },
          {
            "elSymbol": "H",
            "p3d": {
              "x": 2.8146,
              "y": 1.8507,
              "z": 17.1898
            }
          },
          {
            "elSymbol": "C",
            "p3d": {
              "x": 2.9464,
              "y": 2.4652,
              "z": 15.1475
            }
          },
          {
            "elSymbol": "H",
            "p3d": {
              "x": 3.7862,
              "y": 3.1033,
              "z": 15.3872
            }
          },
          {
            "elSymbol": "H",
            "p3d": {
              "x": 3.33,
              "y": 1.5425,
              "z": 14.7475
            }
          },
          {
            "elSymbol": "C",
            "p3d": {
              "x": 2.1189,
              "y": 3.16,
              "z": 14.0576
            }
          },
          {
            "elSymbol": "C",
            "p3d": {
              "x": 2.4181,
              "y": 3.1603,
              "z": 12.7535
            }
          },
          {
            "elSymbol": "P",
            "p3d": {
              "x": 1.1632,
              "y": 4.1331,
              "z": 11.8989
            }
          }
        ],
        "bonds": [
          {
            "atomIds": [
              0,
              1
            ],
            "bo": "DOUBLE"
          },
          {
            "atomIds": [
              1,
              2
            ],
            "bo": "SINGLE"
          },
          {
            "atomIds": [
              2,
              3
            ],
            "bo": "SINGLE"
          },
          {
            "atomIds": [
              4,
              2
            ],
            "bo": "SINGLE"
          },
          {
            "atomIds": [
              5,
              2
            ],
            "bo": "SINGLE"
          },
          {
            "atomIds": [
              6,
              5
            ],
            "bo": "SINGLE"
          },
          {
            "atomIds": [
              7,
              5
            ],
            "bo": "SINGLE"
          },
          {
            "atomIds": [
              8,
              5
            ],
            "bo": "SINGLE"
          },
          {
            "atomIds": [
              9,
              8
            ],
            "bo": "SINGLE"
          },
          {
            "atomIds": [
              10,
              8
            ],
            "bo": "SINGLE"
          },
          {
            "atomIds": [
              11,
              8
            ],
            "bo": "SINGLE"
          },
          {
            "atomIds": [
              11,
              14
            ],
            "bo": "SINGLE"
          },
          {
            "atomIds": [
              12,
              11
            ],
            "bo": "SINGLE"
          },
          {
            "atomIds": [
              13,
              11
            ],
            "bo": "SINGLE"
          },
          {
            "atomIds": [
              14,
              1
            ],
            "bo": "SINGLE"
          },
          {
            "atomIds": [
              15,
              14
            ],
            "bo": "DOUBLE"
          },
          {
            "atomIds": [
              15,
              16
            ],
            "bo": "SINGLE"
          },
          {
            "atomIds": [
              16,
              0
            ],
            "bo": "SINGLE"
          }
        ]
      },
      "vertexId": 113,
      "buildingBlockId": 52,
      "buildingBlockType": "FRAGMENT",
      "isRCV": false,
      "properties": {
        "ATTACHMENT_POINTS": "1#LPhospholeSubAlpha:0:SINGLE:-0.8999%5.4204%13.4669 16#LPhospholeSubAlpha:0:SINGLE:3.5623%2.5529%12.0521 17#LPhospholeSubR:0:SINGLE:2.0225%5.5716%11.2441,MPhosphole:1:SINGLE:-0.1011%3.0668%10.3957 "
      },
      "uniquefyingPropertyKeys": [],
      "allowedMutationTypes": [
        "DELETE",
        "EXTEND",
        "CHANGEBRANCH",
        "CHANGELINK",
        "ADDLINK",
        "DELETELINK",
        "DELETECHAIN"
      ],
      "vertexType": "MolecularFragment"
    },
    {
      "lstAPs": [
        {
          "id": 34401,
          "atomPositionNumber": 0,
          "atomPositionNumberInMol": 72,
          "apClass": {
            "rule": "Xlig",
            "subClass": 1,
            "bndTyp": "SINGLE"
          },
          "dirVec": {
            "x": -0.0053,
            "y": -0.0027,
            "z": 0.63
          }
        }
      ],
      "lstSymAPs": [],
      "mol": {
        "atoms": [
          {
            "elSymbol": "Cl",
            "p3d": {
              "x": 2.3243,
              "y": -0.0063,
              "z": 0.8189
            }
          }
        ],
        "bonds": []
      },
      "vertexId": 88,
      "buildingBlockId": 66,
      "buildingBlockType": "FRAGMENT",
      "isRCV": false,
      "properties": {
        "ATTACHMENT_POINTS": "1#Xlig:1:SINGLE:-0.0053%-0.0027%0.6300 "
      },
      "uniquefyingPropertyKeys": [],
      "allowedMutationTypes": [
        "DELETE",
        "EXTEND",
        "CHANGEBRANCH",
        "CHANGELINK",
        "ADDLINK",
        "DELETELINK",
        "DELETECHAIN"
      ],
      "vertexType": "MolecularFragment"
    },
    {
      "lstAPs": [
        {
          "id": 34438,
          "atomPositionNumber": 0,
          "atomPositionNumberInMol": 27,
          "apClass": {
            "rule": "SubRM",
            "subClass": 1,
            "bndTyp": "SINGLE"
          },
          "dirVec": {
            "x": 0.2917,
            "y": 0.3929,
            "z": -0.6365
          }
        }
      ],
      "lstSymAPs": [],
      "mol": {
        "atoms": [
          {
            "elSymbol": "C",
            "p3d": {
              "x": 1.7002,
              "y": 0.56,
              "z": -1.2045
            }
          },
          {
            "elSymbol": "C",
            "p3d": {
              "x": 3.564,
              "y": -0.7339,
              "z": -2.2652
            }
          },
          {
            "elSymbol": "C",
            "p3d": {
              "x": 2.9237,
              "y": 1.5034,
              "z": -3.1926
            }
          },
          {
            "elSymbol": "C",
            "p3d": {
              "x": 3.4145,
              "y": 0.0994,
              "z": -3.5498
            }
          },
          {
            "elSymbol": "C",
            "p3d": {
              "x": 1.5576,
              "y": 1.3879,
              "z": -2.5024
            }
          },
          {
            "elSymbol": "C",
            "p3d": {
              "x": 2.203,
              "y": -0.843,
              "z": -1.5702
            }
          },
          {
            "elSymbol": "H",
            "p3d": {
              "x": 4.3384,
              "y": -0.3241,
              "z": -1.6106
            }
          },
          {
            "elSymbol": "H",
            "p3d": {
              "x": 3.6361,
              "y": 2.0524,
              "z": -2.5991
            }
          },
          {
            "elSymbol": "H",
            "p3d": {
              "x": 2.7828,
              "y": -0.3911,
              "z": -4.2916
            }
          },
          {
            "elSymbol": "H",
            "p3d": {
              "x": 0.7737,
              "y": 0.9833,
              "z": -3.15
            }
          },
          {
            "elSymbol": "H",
            "p3d": {
              "x": 1.4815,
              "y": -1.3988,
              "z": -2.1783
            }
          },
          {
            "elSymbol": "H",
            "p3d": {
              "x": 2.3445,
              "y": 1.0609,
              "z": -0.4835
            }
          },
          {
            "elSymbol": "H",
            "p3d": {
              "x": 3.8429,
              "y": -1.7623,
              "z": -2.577
            }
          },
          {
            "elSymbol": "H",
            "p3d": {
              "x": 2.7428,
              "y": 2.0124,
              "z": -4.146
            }
          },
          {
            "elSymbol": "H",
            "p3d": {
              "x": 4.4291,
              "y": 0.2183,
              "z": -3.9628
            }
          },
          {
            "elSymbol": "H",
            "p3d": {
              "x": 1.2819,
              "y": 2.4034,
              "z": -2.1821
            }
          },
          {
            "elSymbol": "H",
            "p3d": {
              "x": 2.3734,
              "y": -1.3662,
              "z": -0.6149
            }
          }
        ],
        "bonds": [
          {
            "atomIds": [
              0,
              11
            ],
            "bo": "SINGLE"
          },
          {
            "atomIds": [
              0,
              4
            ],
            "bo": "SINGLE"
          },
          {
            "atomIds": [
              0,
              5
            ],
            "bo": "SINGLE"
          },
          {
            "atomIds": [
              1,
              6
            ],
            "bo": "SINGLE"
          },
          {
            "atomIds": [
              1,
              12
            ],
            "bo": "SINGLE"
          },
          {
            "atomIds": [
              1,
              3
            ],
            "bo": "SINGLE"
          },
          {
            "atomIds": [
              1,
              5
            ],
            "bo": "SINGLE"
          },
          {
            "atomIds": [
              2,
              7
            ],
            "bo": "SINGLE"
          },
          {
            "atomIds": [
              2,
              13
            ],
            "bo": "SINGLE"
          },
          {
            "atomIds": [
              2,
              4
            ],
            "bo": "SINGLE"
          },
          {
            "atomIds": [
              2,
              3
            ],
            "bo": "SINGLE"
          },
          {
            "atomIds": [
              3,
              8
            ],
            "bo": "SINGLE"
          },
          {
            "atomIds": [
              3,
              14
            ],
            "bo": "SINGLE"
          },
          {
            "atomIds": [
              4,
              9
            ],
            "bo": "SINGLE"
          },
          {
            "atomIds": [
              4,
              15
            ],
            "bo": "SINGLE"
          },
          {
            "atomIds": [
              5,
              10
            ],
            "bo": "SINGLE"
          },
          {
            "atomIds": [
              5,
              16
            ],
            "bo": "SINGLE"
          }
        ]
      },
      "vertexId": 25080,
      "buildingBlockId": 34,
      "buildingBlockType": "FRAGMENT",
      "isRCV": false,
      "properties": {
        "ATTACHMENT_POINTS": "1#SubRM:1:SINGLE:0.2917%0.3929%-0.6365 "
      },
      "uniquefyingPropertyKeys": [],
      "allowedMutationTypes": [
        "DELETE",
        "EXTEND",
        "CHANGEBRANCH",
        "CHANGELINK",
        "ADDLINK",
        "DELETELINK",
        "DELETECHAIN"
      ],
      "vertexType": "MolecularFragment"
    },
    {
      "lstAPs": [
        {
          "id": 34439,
          "atomPositionNumber": 0,
          "atomPositionNumberInMol": 44,
          "apClass": {
            "rule": "SubRM",
            "subClass": 1,
            "bndTyp": "SINGLE"
          },
          "dirVec": {
            "x": 0.2917,
            "y": 0.3929,
            "z": -0.6365
          }
        }
      ],
      "lstSymAPs": [],
      "mol": {
        "atoms": [
          {
            "elSymbol": "C",
            "p3d": {
              "x": 1.7002,
              "y": 0.56,
              "z": -1.2045
            }
          },
          {
            "elSymbol": "C",
            "p3d": {
              "x": 3.564,
              "y": -0.7339,
              "z": -2.2652
            }
          },
          {
            "elSymbol": "C",
            "p3d": {
              "x": 2.9237,
              "y": 1.5034,
              "z": -3.1926
            }
          },
          {
            "elSymbol": "C",
            "p3d": {
              "x": 3.4145,
              "y": 0.0994,
              "z": -3.5498
            }
          },
          {
            "elSymbol": "C",
            "p3d": {
              "x": 1.5576,
              "y": 1.3879,
              "z": -2.5024
            }
          },
          {
            "elSymbol": "C",
            "p3d": {
              "x": 2.203,
              "y": -0.843,
              "z": -1.5702
            }
          },
          {
            "elSymbol": "H",
            "p3d": {
              "x": 4.3384,
              "y": -0.3241,
              "z": -1.6106
            }
          },
          {
            "elSymbol": "H",
            "p3d": {
              "x": 3.6361,
              "y": 2.0524,
              "z": -2.5991
            }
          },
          {
            "elSymbol": "H",
            "p3d": {
              "x": 2.7828,
              "y": -0.3911,
              "z": -4.2916
            }
          },
          {
            "elSymbol": "H",
            "p3d": {
              "x": 0.7737,
              "y": 0.9833,
              "z": -3.15
            }
          },
          {
            "elSymbol": "H",
            "p3d": {
              "x": 1.4815,
              "y": -1.3988,
              "z": -2.1783
            }
          },
          {
            "elSymbol": "H",
            "p3d": {
              "x": 2.3445,
              "y": 1.0609,
              "z": -0.4835
            }
          },
          {
            "elSymbol": "H",
            "p3d": {
              "x": 3.8429,
              "y": -1.7623,
              "z": -2.577
            }
          },
          {
            "elSymbol": "H",
            "p3d": {
              "x": 2.7428,
              "y": 2.0124,
              "z": -4.146
            }
          },
          {
            "elSymbol": "H",
            "p3d": {
              "x": 4.4291,
              "y": 0.2183,
              "z": -3.9628
            }
          },
          {
            "elSymbol": "H",
            "p3d": {
              "x": 1.2819,
              "y": 2.4034,
              "z": -2.1821
            }
          },
          {
            "elSymbol": "H",
            "p3d": {
              "x": 2.3734,
              "y": -1.3662,
              "z": -0.6149
            }
          }
        ],
        "bonds": [
          {
            "atomIds": [
              0,
              11
            ],
            "bo": "SINGLE"
          },
          {
            "atomIds": [
              0,
              4
            ],
            "bo": "SINGLE"
          },
          {
            "atomIds": [
              0,
              5
            ],
            "bo": "SINGLE"
          },
          {
            "atomIds": [
              1,
              6
            ],
            "bo": "SINGLE"
          },
          {
            "atomIds": [
              1,
              12
            ],
            "bo": "SINGLE"
          },
          {
            "atomIds": [
              1,
              3
            ],
            "bo": "SINGLE"
          },
          {
            "atomIds": [
              1,
              5
            ],
            "bo": "SINGLE"
          },
          {
            "atomIds": [
              2,
              7
            ],
            "bo": "SINGLE"
          },
          {
            "atomIds": [
              2,
              13
            ],
            "bo": "SINGLE"
          },
          {
            "atomIds": [
              2,
              4
            ],
            "bo": "SINGLE"
          },
          {
            "atomIds": [
              2,
              3
            ],
            "bo": "SINGLE"
          },
          {
            "atomIds": [
              3,
              8
            ],
            "bo": "SINGLE"
          },
          {
            "atomIds": [
              3,
              14
            ],
            "bo": "SINGLE"
          },
          {
            "atomIds": [
              4,
              9
            ],
            "bo": "SINGLE"
          },
          {
            "atomIds": [
              4,
              15
            ],
            "bo": "SINGLE"
          },
          {
            "atomIds": [
              5,
              10
            ],
            "bo": "SINGLE"
          },
          {
            "atomIds": [
              5,
              16
            ],
            "bo": "SINGLE"
          }
        ]
      },
      "vertexId": 24686,
      "buildingBlockId": 34,
      "buildingBlockType": "FRAGMENT",
      "isRCV": false,
      "properties": {
        "ATTACHMENT_POINTS": "1#SubRM:1:SINGLE:0.2917%0.3929%-0.6365 "
      },
      "uniquefyingPropertyKeys": [],
      "allowedMutationTypes": [
        "DELETE",
        "EXTEND",
        "CHANGEBRANCH",
        "CHANGELINK",
        "ADDLINK",
        "DELETELINK",
        "DELETECHAIN"
      ],
      "vertexType": "MolecularFragment"
    },
    {
      "lstAPs": [
        {
          "id": 34440,
          "atomPositionNumber": 0,
          "atomPositionNumberInMol": 61,
          "apClass": {
            "rule": "SubArS",
            "subClass": 1,
            "bndTyp": "SINGLE"
          },
          "dirVec": {
            "x": 0.2973,
            "y": 0.3873,
            "z": -0.6389
          }
        }
      ],
      "lstSymAPs": [],
      "mol": {
        "atoms": [
          {
            "elSymbol": "C",
            "p3d": {
              "x": 1.6995,
              "y": 0.5593,
              "z": -1.2083
            }
          },
          {
            "elSymbol": "C",
            "p3d": {
              "x": 4.2563,
              "y": 0.8754,
              "z": -2.2592
            }
          },
          {
            "elSymbol": "C",
            "p3d": {
              "x": 2.3334,
              "y": 1.79,
              "z": -1.1338
            }
          },
          {
            "elSymbol": "C",
            "p3d": {
              "x": 2.3422,
              "y": -0.5107,
              "z": -1.8125
            }
          },
          {
            "elSymbol": "C",
            "p3d": {
              "x": 3.612,
              "y": -0.3527,
              "z": -2.3321
            }
          },
          {
            "elSymbol": "C",
            "p3d": {
              "x": 3.6062,
              "y": 1.9513,
              "z": -1.6526
            }
          },
          {
            "elSymbol": "H",
            "p3d": {
              "x": 1.833,
              "y": 2.6461,
              "z": -0.6488
            }
          },
          {
            "elSymbol": "H",
            "p3d": {
              "x": 1.8361,
              "y": -1.4773,
              "z": -1.887
            }
          },
          {
            "elSymbol": "H",
            "p3d": {
              "x": 4.115,
              "y": -1.2043,
              "z": -2.8152
            }
          },
          {
            "elSymbol": "H",
            "p3d": {
              "x": 4.1097,
              "y": 2.9214,
              "z": -1.5842
            }
          },
          {
            "elSymbol": "H",
            "p3d": {
              "x": 5.2498,
              "y": 0.9926,
              "z": -2.665
            }
          }
        ],
        "bonds": [
          {
            "atomIds": [
              0,
              3
            ],
            "bo": "SINGLE"
          },
          {
            "atomIds": [
              3,
              4
            ],
            "bo": "DOUBLE"
          },
          {
            "atomIds": [
              1,
              4
            ],
            "bo": "SINGLE"
          },
          {
            "atomIds": [
              1,
              5
            ],
            "bo": "DOUBLE"
          },
          {
            "atomIds": [
              2,
              5
            ],
            "bo": "SINGLE"
          },
          {
            "atomIds": [
              0,
              2
            ],
            "bo": "DOUBLE"
          },
          {
            "atomIds": [
              4,
              8
            ],
            "bo": "SINGLE"
          },
          {
            "atomIds": [
              5,
              9
            ],
            "bo": "SINGLE"
          },
          {
            "atomIds": [
              1,
              10
            ],
            "bo": "SINGLE"
          },
          {
            "atomIds": [
              2,
              6
            ],
            "bo": "SINGLE"
          },
          {
            "atomIds": [
              3,
              7
            ],
            "bo": "SINGLE"
          }
        ]
      },
      "vertexId": 24695,
      "buildingBlockId": 35,
      "buildingBlockType": "FRAGMENT",
      "isRCV": false,
      "properties": {
        "ATTACHMENT_POINTS": "1#SubArS:1:SINGLE:0.2973%0.3873%-0.6389 "
      },
      "uniquefyingPropertyKeys": [],
      "allowedMutationTypes": [
        "DELETE",
        "EXTEND",
        "CHANGEBRANCH",
        "CHANGELINK",
        "ADDLINK",
        "DELETELINK",
        "DELETECHAIN"
      ],
      "vertexType": "MolecularFragment"
    }
  ],
  "gEdges": [
    {
      "srcAPID": 34393,
      "trgAPID": 34396,
      "bondType": "SINGLE"
    },
    {
      "srcAPID": 34395,
      "trgAPID": 34400,
      "bondType": "SINGLE"
    },
    {
      "srcAPID": 34394,
      "trgAPID": 34401,
      "bondType": "SINGLE"
    },
    {
      "srcAPID": 34398,
      "trgAPID": 34438,
      "bondType": "SINGLE"
    },
    {
      "srcAPID": 34397,
      "trgAPID": 34439,
      "bondType": "SINGLE"
    },
    {
      "srcAPID": 34399,
      "trgAPID": 34440,
      "bondType": "SINGLE"
    }
  ],
  "gRings": [],
  "symVertices": [
    {
      "symIds": [
        25080,
        24686
      ]
    }
  ]
}

> <SMILES>
[Pt](C#O)(SC([H])([H])[H])([P]1(C(=C2C(C(C(C(C2=C1C3([H])C(C([H])([H])C(C([H])([H])C3([H])[H])([H])[H])([H])[H])([H])[H])([H])[H])([H])[H])([H])[H])C4([H])C(C([H])([H])C(C([H])([H])C4([H])[H])([H])[H])([H])[H])C=5C(=C(C(=C(C5[H])[H])[H])[H])[H])Cl

$$$$
