M00004981
  CDK     04222210293D

 32 32  0  0  0  0  0  0  0  0999 V2000
   -1.8608   -0.1137    0.2184 Pt  0  0  0  0  0  0  0  0  0  0  0  0
   -3.7659   -0.2721    0.4031 C   0  0  0  0  0  0  0  0  0  0  0  0
   -4.9001   -0.3983    0.4970 O   0  0  0  0  0  0  0  0  0  0  0  0
   -1.8953    1.8380    0.8426 O   0  0  0  0  0  0  0  0  0  0  0  0
   -1.8896    2.6983   -0.2734 C   0  0  0  0  0  0  0  0  0  0  0  0
   -2.0052    3.7134    0.1331 H   0  0  0  0  0  0  0  0  0  0  0  0
   -2.7308    2.4586   -0.9371 H   0  0  0  0  0  0  0  0  0  0  0  0
   -0.9354    2.6075   -0.8083 H   0  0  0  0  0  0  0  0  0  0  0  0
    0.8905   -0.2853   -1.1088 N   0  0  0  0  0  0  0  0  0  0  0  0
    0.1472   -0.0320    0.0060 C   0  0  0  0  0  0  0  0  0  0  0  0
    0.9590    0.3136    1.0472 N   0  0  0  0  0  0  0  0  0  0  0  0
    2.4056    0.2707    0.6651 C   0  0  0  0  0  0  0  0  0  0  0  0
    2.3579   -0.1282   -0.8367 C   0  0  0  0  0  0  0  0  0  0  0  0
    2.9485   -0.4747    1.2810 H   0  0  0  0  0  0  0  0  0  0  0  0
    2.7878    0.6526   -1.4949 H   0  0  0  0  0  0  0  0  0  0  0  0
    2.8923   -1.0798   -1.0332 H   0  0  0  0  0  0  0  0  0  0  0  0
    2.8778    1.2609    0.8233 H   0  0  0  0  0  0  0  0  0  0  0  0
   -0.2272   -0.5243    3.0509 C   0  0  0  0  0  0  0  0  0  0  0  0
    0.4464    0.6759    2.3915 C   0  0  0  0  0  0  0  0  0  0  0  0
    0.4582   -1.3693    3.1856 H   0  0  0  0  0  0  0  0  0  0  0  0
   -0.6244   -0.2542    4.0374 H   0  0  0  0  0  0  0  0  0  0  0  0
   -1.0805   -0.8947    2.4485 H   0  0  0  0  0  0  0  0  0  0  0  0
   -0.3028    1.5104    2.2570 H   0  0  0  0  0  0  0  0  0  0  0  0
    1.2814    1.0635    3.0103 H   0  0  0  0  0  0  0  0  0  0  0  0
    0.7555   -2.1182   -2.7879 C   0  0  0  0  0  0  0  0  0  0  0  0
    0.3528   -0.6933   -2.4271 C   0  0  0  0  0  0  0  0  0  0  0  0
    0.4095   -2.8327   -2.0209 H   0  0  0  0  0  0  0  0  0  0  0  0
    0.2872   -2.4266   -3.7316 H   0  0  0  0  0  0  0  0  0  0  0  0
    1.8365   -2.2426   -2.8959 H   0  0  0  0  0  0  0  0  0  0  0  0
    0.7120    0.0283   -3.1951 H   0  0  0  0  0  0  0  0  0  0  0  0
   -0.7662   -0.6148   -2.3771 H   0  0  0  0  0  0  0  0  0  0  0  0
   -1.8219   -2.3369   -0.3701 Cl  0  0  0  0  0  0  0  0  0  0  0  0
  2  3  3  0  0  0  0
  1  2  1  0  0  0  0
  5  6  1  0  0  0  0
  5  7  1  0  0  0  0
  5  8  1  0  0  0  0
  4  5  1  0  0  0  0
  1  4  1  0  0  0  0
  9 10  1  0  0  0  0
 11 10  1  0  0  0  0
 12 11  1  0  0  0  0
 12 13  1  0  0  0  0
 13  9  1  0  0  0  0
 14 12  1  0  0  0  0
 15 13  1  0  0  0  0
  1 10  1  0  0  0  0
 13 16  1  0  0  0  0
 12 17  1  0  0  0  0
 18 19  1  0  0  0  0
 18 20  1  0  0  0  0
 18 21  1  0  0  0  0
 18 22  1  0  0  0  0
 19 23  1  0  0  0  0
 19 24  1  0  0  0  0
 11 19  1  0  0  0  0
 25 26  1  0  0  0  0
 25 27  1  0  0  0  0
 25 28  1  0  0  0  0
 25 29  1  0  0  0  0
 26 30  1  0  0  0  0
 26 31  1  0  0  0  0
  9 26  1  0  0  0  0
  1 32  1  0  0  0  0
M  END
> <PM6_ENERGY>
-309.384

> <UID>
BYEAWJZKAAQKHR-TVZXBUMLNA-M

> <FITNESS>
1.14506

> <GCODE>
5760

> <GraphENC>
5760 72_1_0,80_65_1,94_16_1,88_67_1,114343_1_2,114060_1_2,114344_32_1,114043_32_1, 72_0_80_0_SINGLE_Xlig:0_Xlig:1,72_2_94_1_SINGLE_scaff:0_MImidazolidinylidene:1,72_1_88_0_SINGLE_Xlig:0_Xlig:1,94_4_114343_0_SINGLE_LImidazolidinylideneSubCL:0_hyd:1,94_3_114060_0_SINGLE_LImidazolidinylideneSubCL:0_hyd:1,94_2_114344_0_SINGLE_LImidazolidinylideneSubNL:0_SubRS:1,94_0_114043_0_SINGLE_LImidazolidinylideneSubNL:0_SubRS:1, SymmetricSet [symIds=[114344, 114043]] SymmetricSet [symIds=[114343, 114060]] 

> <GraphJson>
{
  "graphId": 5760,
  "gVertices": [
    {
      "lstAPs": [
        {
          "id": 150209,
          "atomPositionNumber": 0,
          "atomPositionNumberInMol": 0,
          "apClass": {
            "rule": "Xlig",
            "subClass": 0,
            "bndTyp": "SINGLE"
          },
          "dirVec": {
            "x": -2.3339,
            "y": -0.0087,
            "z": 0.8172
          }
        },
        {
          "id": 150210,
          "atomPositionNumber": 0,
          "atomPositionNumberInMol": 0,
          "apClass": {
            "rule": "Xlig",
            "subClass": 0,
            "bndTyp": "SINGLE"
          },
          "dirVec": {
            "x": 2.336,
            "y": -5.0E-4,
            "z": 0.829
          }
        },
        {
          "id": 150211,
          "atomPositionNumber": 0,
          "atomPositionNumberInMol": 0,
          "apClass": {
            "rule": "scaff",
            "subClass": 0,
            "bndTyp": "SINGLE"
          },
          "dirVec": {
            "x": -0.0095,
            "y": 0.0046,
            "z": -1.7113
          }
        }
      ],
      "lstSymAPs": [
        {
          "symIds": [
            0,
            1
          ]
        }
      ],
      "mol": {
        "atoms": [
          {
            "elSymbol": "Pt",
            "p3d": {
              "x": -0.0098,
              "y": 0.0049,
              "z": 0.6289
            }
          },
          {
            "elSymbol": "C",
            "p3d": {
              "x": -6.0E-4,
              "y": 0.0016,
              "z": 2.5609
            }
          },
          {
            "elSymbol": "O",
            "p3d": {
              "x": 0.0025,
              "y": -0.0041,
              "z": 3.6974
            }
          },
          {
            "elSymbol": "Du",
            "p3d": {
              "x": -0.007,
              "y": 1.0013,
              "z": 0.6372
            }
          },
          {
            "elSymbol": "Du",
            "p3d": {
              "x": -0.0014,
              "y": 0.9902,
              "z": 2.5698
            }
          }
        ],
        "bonds": [
          {
            "atomIds": [
              1,
              2
            ],
            "bo": "TRIPLE"
          },
          {
            "atomIds": [
              0,
              1
            ],
            "bo": "SINGLE"
          },
          {
            "atomIds": [
              3,
              0
            ],
            "bo": "SINGLE"
          },
          {
            "atomIds": [
              4,
              1
            ],
            "bo": "SINGLE"
          }
        ]
      },
      "vertexId": 72,
      "buildingBlockId": 0,
      "buildingBlockType": "SCAFFOLD",
      "isRCV": false,
      "properties": {
        "ATTACHMENT_POINTS": "1#Xlig:0:SINGLE:-2.3339%-0.0087%0.8172,Xlig:0:SINGLE:2.3360%-0.0005%0.8290,scaff:0:SINGLE:-0.0095%0.0046%-1.7113 "
      },
      "uniquefyingPropertyKeys": [],
      "allowedMutationTypes": [
        "DELETE",
        "EXTEND",
        "CHANGEBRANCH",
        "CHANGELINK",
        "ADDLINK",
        "DELETELINK",
        "DELETECHAIN"
      ],
      "vertexType": "MolecularFragment"
    },
    {
      "lstAPs": [
        {
          "id": 150212,
          "atomPositionNumber": 0,
          "atomPositionNumberInMol": 5,
          "apClass": {
            "rule": "Xlig",
            "subClass": 1,
            "bndTyp": "SINGLE"
          },
          "dirVec": {
            "x": -0.1753,
            "y": 0.0948,
            "z": -0.4464
          }
        }
      ],
      "lstSymAPs": [],
      "mol": {
        "atoms": [
          {
            "elSymbol": "O",
            "p3d": {
              "x": -0.3534,
              "y": 2.1044,
              "z": -0.7339
            }
          },
          {
            "elSymbol": "C",
            "p3d": {
              "x": -0.5345,
              "y": 2.7646,
              "z": 0.4801
            }
          },
          {
            "elSymbol": "H",
            "p3d": {
              "x": -0.3728,
              "y": 3.8337,
              "z": 0.2724
            }
          },
          {
            "elSymbol": "H",
            "p3d": {
              "x": 0.1816,
              "y": 2.4161,
              "z": 1.2384
            }
          },
          {
            "elSymbol": "H",
            "p3d": {
              "x": -1.553,
              "y": 2.6149,
              "z": 0.8489
            }
          }
        ],
        "bonds": [
          {
            "atomIds": [
              1,
              2
            ],
            "bo": "SINGLE"
          },
          {
            "atomIds": [
              1,
              3
            ],
            "bo": "SINGLE"
          },
          {
            "atomIds": [
              1,
              4
            ],
            "bo": "SINGLE"
          },
          {
            "atomIds": [
              0,
              1
            ],
            "bo": "SINGLE"
          }
        ]
      },
      "vertexId": 80,
      "buildingBlockId": 64,
      "buildingBlockType": "FRAGMENT",
      "isRCV": false,
      "properties": {
        "ATTACHMENT_POINTS": "1#Xlig:1:SINGLE:-0.1753%0.0948%-0.4464 "
      },
      "uniquefyingPropertyKeys": [],
      "allowedMutationTypes": [
        "DELETE",
        "EXTEND",
        "CHANGEBRANCH",
        "CHANGELINK",
        "ADDLINK",
        "DELETELINK",
        "DELETECHAIN"
      ],
      "vertexType": "MolecularFragment"
    },
    {
      "lstAPs": [
        {
          "id": 150213,
          "atomPositionNumber": 0,
          "atomPositionNumberInMol": 10,
          "apClass": {
            "rule": "LImidazolidinylideneSubNL",
            "subClass": 0,
            "bndTyp": "SINGLE"
          },
          "dirVec": {
            "x": 1.1053,
            "y": -4.2806,
            "z": -0.0746
          }
        },
        {
          "id": 150214,
          "atomPositionNumber": 1,
          "atomPositionNumberInMol": 11,
          "apClass": {
            "rule": "MImidazolidinylidene",
            "subClass": 1,
            "bndTyp": "SINGLE"
          },
          "dirVec": {
            "x": 0.0066,
            "y": -1.1634,
            "z": -0.2139
          }
        },
        {
          "id": 150215,
          "atomPositionNumber": 2,
          "atomPositionNumberInMol": 12,
          "apClass": {
            "rule": "LImidazolidinylideneSubNL",
            "subClass": 0,
            "bndTyp": "SINGLE"
          },
          "dirVec": {
            "x": -0.4116,
            "y": -1.1759,
            "z": -3.5324
          }
        },
        {
          "id": 150216,
          "atomPositionNumber": 3,
          "atomPositionNumberInMol": 13,
          "apClass": {
            "rule": "LImidazolidinylideneSubCL",
            "subClass": 0,
            "bndTyp": "SINGLE"
          },
          "dirVec": {
            "x": -1.1896,
            "y": -4.3794,
            "z": -4.1809
          }
        },
        {
          "id": 150217,
          "atomPositionNumber": 4,
          "atomPositionNumberInMol": 14,
          "apClass": {
            "rule": "LImidazolidinylideneSubCL",
            "subClass": 0,
            "bndTyp": "SINGLE"
          },
          "dirVec": {
            "x": 2.4239,
            "y": -4.9262,
            "z": -3.0604
          }
        }
      ],
      "lstSymAPs": [
        {
          "symIds": [
            0,
            2
          ]
        },
        {
          "symIds": [
            3,
            4
          ]
        }
      ],
      "mol": {
        "atoms": [
          {
            "elSymbol": "N",
            "p3d": {
              "x": 0.8214,
              "y": -3.7977,
              "z": -1.429
            }
          },
          {
            "elSymbol": "C",
            "p3d": {
              "x": 0.3058,
              "y": -2.5822,
              "z": -1.663
            }
          },
          {
            "elSymbol": "N",
            "p3d": {
              "x": -0.0048,
              "y": -2.4602,
              "z": -2.9405
            }
          },
          {
            "elSymbol": "C",
            "p3d": {
              "x": 0.1672,
              "y": -3.7242,
              "z": -3.6717
            }
          },
          {
            "elSymbol": "C",
            "p3d": {
              "x": 0.9512,
              "y": -4.5908,
              "z": -2.682
            }
          },
          {
            "elSymbol": "H",
            "p3d": {
              "x": 0.6828,
              "y": -3.6212,
              "z": -4.6265
            }
          },
          {
            "elSymbol": "H",
            "p3d": {
              "x": 0.5478,
              "y": -5.6128,
              "z": -2.6141
            }
          }
        ],
        "bonds": [
          {
            "atomIds": [
              0,
              1
            ],
            "bo": "SINGLE"
          },
          {
            "atomIds": [
              2,
              1
            ],
            "bo": "SINGLE"
          },
          {
            "atomIds": [
              3,
              2
            ],
            "bo": "SINGLE"
          },
          {
            "atomIds": [
              3,
              4
            ],
            "bo": "SINGLE"
          },
          {
            "atomIds": [
              4,
              0
            ],
            "bo": "SINGLE"
          },
          {
            "atomIds": [
              5,
              3
            ],
            "bo": "SINGLE"
          },
          {
            "atomIds": [
              6,
              4
            ],
            "bo": "SINGLE"
          }
        ]
      },
      "vertexId": 94,
      "buildingBlockId": 15,
      "buildingBlockType": "FRAGMENT",
      "isRCV": false,
      "properties": {
        "ATTACHMENT_POINTS": "1#LImidazolidinylideneSubNL:0:SINGLE:1.1053%-4.2806%-0.0746 2#MImidazolidinylidene:1:SINGLE:0.0066%-1.1634%-0.2139 3#LImidazolidinylideneSubNL:0:SINGLE:-0.4116%-1.1759%-3.5324 4#LImidazolidinylideneSubCL:0:SINGLE:-1.1896%-4.3794%-4.1809 5#LImidazolidinylideneSubCL:0:SINGLE:2.4239%-4.9262%-3.0604 "
      },
      "uniquefyingPropertyKeys": [],
      "allowedMutationTypes": [
        "DELETE",
        "EXTEND",
        "CHANGEBRANCH",
        "CHANGELINK",
        "ADDLINK",
        "DELETELINK",
        "DELETECHAIN"
      ],
      "vertexType": "MolecularFragment"
    },
    {
      "lstAPs": [
        {
          "id": 150218,
          "atomPositionNumber": 0,
          "atomPositionNumberInMol": 33,
          "apClass": {
            "rule": "Xlig",
            "subClass": 1,
            "bndTyp": "SINGLE"
          },
          "dirVec": {
            "x": -0.0053,
            "y": -0.0027,
            "z": 0.63
          }
        }
      ],
      "lstSymAPs": [],
      "mol": {
        "atoms": [
          {
            "elSymbol": "Cl",
            "p3d": {
              "x": 2.3243,
              "y": -0.0063,
              "z": 0.8189
            }
          }
        ],
        "bonds": []
      },
      "vertexId": 88,
      "buildingBlockId": 66,
      "buildingBlockType": "FRAGMENT",
      "isRCV": false,
      "properties": {
        "ATTACHMENT_POINTS": "1#Xlig:1:SINGLE:-0.0053%-0.0027%0.6300 "
      },
      "uniquefyingPropertyKeys": [],
      "allowedMutationTypes": [
        "DELETE",
        "EXTEND",
        "CHANGEBRANCH",
        "CHANGELINK",
        "ADDLINK",
        "DELETELINK",
        "DELETECHAIN"
      ],
      "vertexType": "MolecularFragment"
    },
    {
      "lstAPs": [
        {
          "id": 150261,
          "atomPositionNumber": 0,
          "atomPositionNumberInMol": 17,
          "apClass": {
            "rule": "hyd",
            "subClass": 1,
            "bndTyp": "SINGLE"
          },
          "dirVec": {
            "x": 0.4589,
            "y": -1.751,
            "z": 0.3869
          }
        }
      ],
      "lstSymAPs": [],
      "mol": {
        "atoms": [
          {
            "elSymbol": "H",
            "p3d": {
              "x": 0.1925,
              "y": -2.5024,
              "z": 1.1483
            }
          }
        ],
        "bonds": []
      },
      "vertexId": 114343,
      "buildingBlockId": 0,
      "buildingBlockType": "CAP",
      "isRCV": false,
      "properties": {
        "ATTACHMENT_POINTS": "1#hyd:1:SINGLE:0.4589%-1.7510%0.3869 "
      },
      "uniquefyingPropertyKeys": [],
      "allowedMutationTypes": [
        "DELETE",
        "EXTEND",
        "CHANGEBRANCH",
        "CHANGELINK",
        "ADDLINK",
        "DELETELINK",
        "DELETECHAIN"
      ],
      "vertexType": "MolecularFragment"
    },
    {
      "lstAPs": [
        {
          "id": 150262,
          "atomPositionNumber": 0,
          "atomPositionNumberInMol": 18,
          "apClass": {
            "rule": "hyd",
            "subClass": 1,
            "bndTyp": "SINGLE"
          },
          "dirVec": {
            "x": 0.4589,
            "y": -1.751,
            "z": 0.3869
          }
        }
      ],
      "lstSymAPs": [],
      "mol": {
        "atoms": [
          {
            "elSymbol": "H",
            "p3d": {
              "x": 0.1925,
              "y": -2.5024,
              "z": 1.1483
            }
          }
        ],
        "bonds": []
      },
      "vertexId": 114060,
      "buildingBlockId": 0,
      "buildingBlockType": "CAP",
      "isRCV": false,
      "properties": {
        "ATTACHMENT_POINTS": "1#hyd:1:SINGLE:0.4589%-1.7510%0.3869 "
      },
      "uniquefyingPropertyKeys": [],
      "allowedMutationTypes": [
        "DELETE",
        "EXTEND",
        "CHANGEBRANCH",
        "CHANGELINK",
        "ADDLINK",
        "DELETELINK",
        "DELETECHAIN"
      ],
      "vertexType": "MolecularFragment"
    },
    {
      "lstAPs": [
        {
          "id": 150263,
          "atomPositionNumber": 1,
          "atomPositionNumberInMol": 20,
          "apClass": {
            "rule": "SubRS",
            "subClass": 1,
            "bndTyp": "SINGLE"
          },
          "dirVec": {
            "x": 0.2985,
            "y": 0.384,
            "z": -0.6258
          }
        }
      ],
      "lstSymAPs": [],
      "mol": {
        "atoms": [
          {
            "elSymbol": "C",
            "p3d": {
              "x": -1.0244,
              "y": -0.2225,
              "z": 1.3991
            }
          },
          {
            "elSymbol": "C",
            "p3d": {
              "x": 0.3973,
              "y": -0.042,
              "z": 0.8195
            }
          },
          {
            "elSymbol": "H",
            "p3d": {
              "x": -1.5635,
              "y": -0.9908,
              "z": 0.8263
            }
          },
          {
            "elSymbol": "H",
            "p3d": {
              "x": -0.941,
              "y": -0.535,
              "z": 2.446
            }
          },
          {
            "elSymbol": "H",
            "p3d": {
              "x": -1.5586,
              "y": 0.7335,
              "z": 1.3382
            }
          },
          {
            "elSymbol": "H",
            "p3d": {
              "x": 0.9335,
              "y": 0.7221,
              "z": 1.4011
            }
          },
          {
            "elSymbol": "H",
            "p3d": {
              "x": 0.927,
              "y": -1.0102,
              "z": 0.9001
            }
          }
        ],
        "bonds": [
          {
            "atomIds": [
              0,
              1
            ],
            "bo": "SINGLE"
          },
          {
            "atomIds": [
              0,
              2
            ],
            "bo": "SINGLE"
          },
          {
            "atomIds": [
              0,
              3
            ],
            "bo": "SINGLE"
          },
          {
            "atomIds": [
              0,
              4
            ],
            "bo": "SINGLE"
          },
          {
            "atomIds": [
              1,
              5
            ],
            "bo": "SINGLE"
          },
          {
            "atomIds": [
              1,
              6
            ],
            "bo": "SINGLE"
          }
        ]
      },
      "vertexId": 114344,
      "buildingBlockId": 31,
      "buildingBlockType": "FRAGMENT",
      "isRCV": false,
      "properties": {
        "ATTACHMENT_POINTS": "2#SubRS:1:SINGLE:0.2985%0.3840%-0.6258 "
      },
      "uniquefyingPropertyKeys": [],
      "allowedMutationTypes": [
        "DELETE",
        "EXTEND",
        "CHANGEBRANCH",
        "CHANGELINK",
        "ADDLINK",
        "DELETELINK",
        "DELETECHAIN"
      ],
      "vertexType": "MolecularFragment"
    },
    {
      "lstAPs": [
        {
          "id": 150264,
          "atomPositionNumber": 1,
          "atomPositionNumberInMol": 27,
          "apClass": {
            "rule": "SubRS",
            "subClass": 1,
            "bndTyp": "SINGLE"
          },
          "dirVec": {
            "x": 0.2985,
            "y": 0.384,
            "z": -0.6258
          }
        }
      ],
      "lstSymAPs": [],
      "mol": {
        "atoms": [
          {
            "elSymbol": "C",
            "p3d": {
              "x": -1.0244,
              "y": -0.2225,
              "z": 1.3991
            }
          },
          {
            "elSymbol": "C",
            "p3d": {
              "x": 0.3973,
              "y": -0.042,
              "z": 0.8195
            }
          },
          {
            "elSymbol": "H",
            "p3d": {
              "x": -1.5635,
              "y": -0.9908,
              "z": 0.8263
            }
          },
          {
            "elSymbol": "H",
            "p3d": {
              "x": -0.941,
              "y": -0.535,
              "z": 2.446
            }
          },
          {
            "elSymbol": "H",
            "p3d": {
              "x": -1.5586,
              "y": 0.7335,
              "z": 1.3382
            }
          },
          {
            "elSymbol": "H",
            "p3d": {
              "x": 0.9335,
              "y": 0.7221,
              "z": 1.4011
            }
          },
          {
            "elSymbol": "H",
            "p3d": {
              "x": 0.927,
              "y": -1.0102,
              "z": 0.9001
            }
          }
        ],
        "bonds": [
          {
            "atomIds": [
              0,
              1
            ],
            "bo": "SINGLE"
          },
          {
            "atomIds": [
              0,
              2
            ],
            "bo": "SINGLE"
          },
          {
            "atomIds": [
              0,
              3
            ],
            "bo": "SINGLE"
          },
          {
            "atomIds": [
              0,
              4
            ],
            "bo": "SINGLE"
          },
          {
            "atomIds": [
              1,
              5
            ],
            "bo": "SINGLE"
          },
          {
            "atomIds": [
              1,
              6
            ],
            "bo": "SINGLE"
          }
        ]
      },
      "vertexId": 114043,
      "buildingBlockId": 31,
      "buildingBlockType": "FRAGMENT",
      "isRCV": false,
      "properties": {
        "ATTACHMENT_POINTS": "2#SubRS:1:SINGLE:0.2985%0.3840%-0.6258 "
      },
      "uniquefyingPropertyKeys": [],
      "allowedMutationTypes": [
        "DELETE",
        "EXTEND",
        "CHANGEBRANCH",
        "CHANGELINK",
        "ADDLINK",
        "DELETELINK",
        "DELETECHAIN"
      ],
      "vertexType": "MolecularFragment"
    }
  ],
  "gEdges": [
    {
      "srcAPID": 150209,
      "trgAPID": 150212,
      "bondType": "SINGLE"
    },
    {
      "srcAPID": 150211,
      "trgAPID": 150214,
      "bondType": "SINGLE"
    },
    {
      "srcAPID": 150210,
      "trgAPID": 150218,
      "bondType": "SINGLE"
    },
    {
      "srcAPID": 150217,
      "trgAPID": 150261,
      "bondType": "SINGLE"
    },
    {
      "srcAPID": 150216,
      "trgAPID": 150262,
      "bondType": "SINGLE"
    },
    {
      "srcAPID": 150215,
      "trgAPID": 150263,
      "bondType": "SINGLE"
    },
    {
      "srcAPID": 150213,
      "trgAPID": 150264,
      "bondType": "SINGLE"
    }
  ],
  "gRings": [],
  "symVertices": [
    {
      "symIds": [
        114344,
        114043
      ]
    },
    {
      "symIds": [
        114343,
        114060
      ]
    }
  ]
}

> <SMILES>
[Pt](C#O)(OC([H])([H])[H])([C]1N(C(C(N1C(C([H])([H])[H])([H])[H])([H])[H])([H])[H])C(C([H])([H])[H])([H])[H])Cl

$$$$
