M00021157
  CDK     04222216163D

 63 66  0  0  0  0  0  0  0  0999 V2000
   -2.1984   -0.5939    0.2975 Pt  0  0  0  0  0  0  0  0  0  0  0  0
   -4.1147   -0.9231    0.2763 C   0  0  0  0  0  0  0  0  0  0  0  0
   -5.2348   -1.1596    0.2583 O   0  0  0  0  0  0  0  0  0  0  0  0
   -2.8427    1.3156    0.6373 O   0  0  0  0  0  0  0  0  0  0  0  0
   -2.7073    2.1207   -0.5110 C   0  0  0  0  0  0  0  0  0  0  0  0
   -3.2953    3.0269   -0.3048 H   0  0  0  0  0  0  0  0  0  0  0  0
   -3.1084    1.6009   -1.3893 H   0  0  0  0  0  0  0  0  0  0  0  0
   -1.6528    2.3884   -0.6597 H   0  0  0  0  0  0  0  0  0  0  0  0
    0.0702   -0.4884    0.2685 P   0  0  0  0  0  0  0  0  0  0  0  0
    0.7087   -1.1096    1.7526 N   0  0  0  0  0  0  0  0  0  0  0  0
    2.1347    0.2032    3.3460 C   0  0  0  0  0  0  0  0  0  0  0  0
    2.0886   -0.8195    2.2092 C   0  0  0  0  0  0  0  0  0  0  0  0
    1.5367   -0.1209    4.2060 H   0  0  0  0  0  0  0  0  0  0  0  0
    3.1607    0.3618    3.6936 H   0  0  0  0  0  0  0  0  0  0  0  0
    1.7375    1.1787    3.0347 H   0  0  0  0  0  0  0  0  0  0  0  0
    2.7147   -0.4590    1.3612 H   0  0  0  0  0  0  0  0  0  0  0  0
    2.5472   -1.7772    2.5563 H   0  0  0  0  0  0  0  0  0  0  0  0
   -1.2405   -1.0947    3.3463 C   0  0  0  0  0  0  0  0  0  0  0  0
   -0.1796   -1.9272    2.6204 C   0  0  0  0  0  0  0  0  0  0  0  0
   -1.7347   -1.6921    4.1214 H   0  0  0  0  0  0  0  0  0  0  0  0
   -0.8084   -0.2128    3.8343 H   0  0  0  0  0  0  0  0  0  0  0  0
   -2.0397   -0.7391    2.6675 H   0  0  0  0  0  0  0  0  0  0  0  0
    0.4539   -2.4590    3.3656 H   0  0  0  0  0  0  0  0  0  0  0  0
   -0.6780   -2.7258    2.0030 H   0  0  0  0  0  0  0  0  0  0  0  0
    2.1493   -2.5786    0.0612 H   0  0  0  0  0  0  0  0  0  0  0  0
    1.7431   -2.3846   -0.9349 C   0  0  0  0  0  0  0  0  0  0  0  0
    0.7328   -1.4887   -1.1646 C   0  0  0  0  0  0  0  0  0  0  0  0
    1.8334   -2.9371   -3.2948 C   0  0  0  0  0  0  0  0  0  0  0  0
    0.1713   -1.3078   -2.4688 C   0  0  0  0  0  0  0  0  0  0  0  0
    2.3028   -3.1228   -2.0205 C   0  0  0  0  0  0  0  0  0  0  0  0
    0.7578   -2.0271   -3.5485 C   0  0  0  0  0  0  0  0  0  0  0  0
   -0.9493   -0.4582   -2.7518 C   0  0  0  0  0  0  0  0  0  0  0  0
    3.1043   -3.8303   -1.8143 H   0  0  0  0  0  0  0  0  0  0  0  0
    0.7317   -2.3948   -5.6915 H   0  0  0  0  0  0  0  0  0  0  0  0
    2.2626   -3.4845   -4.1341 H   0  0  0  0  0  0  0  0  0  0  0  0
   -1.4092   -0.3069   -4.0367 C   0  0  0  0  0  0  0  0  0  0  0  0
   -1.4696    0.0641   -1.9368 H   0  0  0  0  0  0  0  0  0  0  0  0
   -2.2588    0.3421   -4.2490 H   0  0  0  0  0  0  0  0  0  0  0  0
   -0.7928   -0.9996   -5.1178 C   0  0  0  0  0  0  0  0  0  0  0  0
   -1.1766   -0.8506   -6.1258 H   0  0  0  0  0  0  0  0  0  0  0  0
    0.2595   -1.8454   -4.8778 C   0  0  0  0  0  0  0  0  0  0  0  0
    2.0775    0.4976   -1.6487 H   0  0  0  0  0  0  0  0  0  0  0  0
    1.8320    1.3026   -0.9484 C   0  0  0  0  0  0  0  0  0  0  0  0
    0.8857    1.1783    0.0380 C   0  0  0  0  0  0  0  0  0  0  0  0
    2.3317    3.5678   -0.2509 C   0  0  0  0  0  0  0  0  0  0  0  0
    0.5851    2.2667    0.9169 C   0  0  0  0  0  0  0  0  0  0  0  0
    2.5564    2.5193   -1.1054 C   0  0  0  0  0  0  0  0  0  0  0  0
    1.3482    3.4630    0.7817 C   0  0  0  0  0  0  0  0  0  0  0  0
   -0.4380    2.2363    1.9217 C   0  0  0  0  0  0  0  0  0  0  0  0
    3.2910    2.5929   -1.9056 H   0  0  0  0  0  0  0  0  0  0  0  0
    1.7297    5.4568    1.5606 H   0  0  0  0  0  0  0  0  0  0  0  0
    2.8936    4.4974   -0.3463 H   0  0  0  0  0  0  0  0  0  0  0  0
   -0.6365    3.3041    2.7604 C   0  0  0  0  0  0  0  0  0  0  0  0
   -1.1168    1.3753    1.9958 H   0  0  0  0  0  0  0  0  0  0  0  0
   -1.4246    3.2742    3.5134 H   0  0  0  0  0  0  0  0  0  0  0  0
    0.1624    4.4782    2.6484 C   0  0  0  0  0  0  0  0  0  0  0  0
   -0.0154    5.3041    3.3351 H   0  0  0  0  0  0  0  0  0  0  0  0
    1.1238    4.5592    1.6748 C   0  0  0  0  0  0  0  0  0  0  0  0
   -1.4619   -2.4916    0.1466 O   0  0  0  0  0  0  0  0  0  0  0  0
   -2.1440   -3.2626   -0.8177 C   0  0  0  0  0  0  0  0  0  0  0  0
   -1.5463   -4.1763   -0.9427 H   0  0  0  0  0  0  0  0  0  0  0  0
   -2.1990   -2.7156   -1.7676 H   0  0  0  0  0  0  0  0  0  0  0  0
   -3.1448   -3.5112   -0.4450 H   0  0  0  0  0  0  0  0  0  0  0  0
  2  3  3  0  0  0  0
  1  2  1  0  0  0  0
  5  6  1  0  0  0  0
  5  7  1  0  0  0  0
  5  8  1  0  0  0  0
  4  5  1  0  0  0  0
  1  4  1  0  0  0  0
  1  9  1  0  0  0  0
  9 10  1  0  0  0  0
 11 12  1  0  0  0  0
 11 13  1  0  0  0  0
 11 14  1  0  0  0  0
 11 15  1  0  0  0  0
 12 16  1  0  0  0  0
 12 17  1  0  0  0  0
 10 12  1  0  0  0  0
 18 19  1  0  0  0  0
 18 20  1  0  0  0  0
 18 21  1  0  0  0  0
 18 22  1  0  0  0  0
 19 23  1  0  0  0  0
 19 24  1  0  0  0  0
 10 19  1  0  0  0  0
 25 26  1  0  0  0  0
 26 27  1  0  0  0  0
 26 30  2  0  0  0  0
 27 29  2  0  0  0  0
 29 31  1  0  0  0  0
 28 30  1  0  0  0  0
 28 31  2  0  0  0  0
 32 29  1  0  0  0  0
 31 41  1  0  0  0  0
 32 36  2  0  0  0  0
 36 39  1  0  0  0  0
 39 41  2  0  0  0  0
 28 35  1  0  0  0  0
 30 33  1  0  0  0  0
 32 37  1  0  0  0  0
 34 41  1  0  0  0  0
 39 40  1  0  0  0  0
 36 38  1  0  0  0  0
  9 27  1  0  0  0  0
 42 43  1  0  0  0  0
 43 44  1  0  0  0  0
 43 47  2  0  0  0  0
 44 46  2  0  0  0  0
 46 48  1  0  0  0  0
 45 47  1  0  0  0  0
 45 48  2  0  0  0  0
 49 46  1  0  0  0  0
 48 58  1  0  0  0  0
 49 53  2  0  0  0  0
 53 56  1  0  0  0  0
 56 58  2  0  0  0  0
 45 52  1  0  0  0  0
 47 50  1  0  0  0  0
 49 54  1  0  0  0  0
 51 58  1  0  0  0  0
 56 57  1  0  0  0  0
 53 55  1  0  0  0  0
  9 44  1  0  0  0  0
 60 61  1  0  0  0  0
 60 62  1  0  0  0  0
 60 63  1  0  0  0  0
 59 60  1  0  0  0  0
  1 59  1  0  0  0  0
M  END
> <PM6_ENERGY>
-90.471

> <UID>
DDNMMMKBZFEQTC-UFQXTFFMNA-N

> <FITNESS>
1.14494

> <GCODE>
22518

> <GraphENC>
22518 72_1_0,80_65_1,101_4_1,86_65_1,69877_6_1,69887_39_1,70717_39_1,557144_32_1,557170_32_1, 72_0_80_0_SINGLE_Xlig:0_Xlig:1,72_2_101_3_SINGLE_scaff:0_MMonoAminoPhosphine:1,72_1_86_0_SINGLE_Xlig:0_Xlig:1,101_0_69877_0_SINGLE_LMonoAminoPhosphineN:0_LAminoPhosphineN:1,101_1_69887_0_SINGLE_LMonoAminoPhosphineSubR:0_SubArM:1,101_2_70717_0_SINGLE_LMonoAminoPhosphineSubR:0_SubArM:1,69877_1_557144_0_SINGLE_AminoPhosphineSubN:0_SubRS:1,69877_2_557170_0_SINGLE_AminoPhosphineSubN:0_SubRS:1, SymmetricSet [symIds=[69887, 70717]] SymmetricSet [symIds=[557144, 557170]] 

> <GraphJson>
{
  "graphId": 22518,
  "gVertices": [
    {
      "lstAPs": [
        {
          "id": 619190,
          "atomPositionNumber": 0,
          "atomPositionNumberInMol": 0,
          "apClass": {
            "rule": "Xlig",
            "subClass": 0,
            "bndTyp": "SINGLE"
          },
          "dirVec": {
            "x": -2.3339,
            "y": -0.0087,
            "z": 0.8172
          }
        },
        {
          "id": 619191,
          "atomPositionNumber": 0,
          "atomPositionNumberInMol": 0,
          "apClass": {
            "rule": "Xlig",
            "subClass": 0,
            "bndTyp": "SINGLE"
          },
          "dirVec": {
            "x": 2.336,
            "y": -5.0E-4,
            "z": 0.829
          }
        },
        {
          "id": 619192,
          "atomPositionNumber": 0,
          "atomPositionNumberInMol": 0,
          "apClass": {
            "rule": "scaff",
            "subClass": 0,
            "bndTyp": "SINGLE"
          },
          "dirVec": {
            "x": -0.0095,
            "y": 0.0046,
            "z": -1.7113
          }
        }
      ],
      "lstSymAPs": [
        {
          "symIds": [
            0,
            1
          ]
        }
      ],
      "mol": {
        "atoms": [
          {
            "elSymbol": "Pt",
            "p3d": {
              "x": -0.0098,
              "y": 0.0049,
              "z": 0.6289
            }
          },
          {
            "elSymbol": "C",
            "p3d": {
              "x": -6.0E-4,
              "y": 0.0016,
              "z": 2.5609
            }
          },
          {
            "elSymbol": "O",
            "p3d": {
              "x": 0.0025,
              "y": -0.0041,
              "z": 3.6974
            }
          },
          {
            "elSymbol": "Du",
            "p3d": {
              "x": -0.007,
              "y": 1.0013,
              "z": 0.6372
            }
          },
          {
            "elSymbol": "Du",
            "p3d": {
              "x": -0.0014,
              "y": 0.9902,
              "z": 2.5698
            }
          }
        ],
        "bonds": [
          {
            "atomIds": [
              1,
              2
            ],
            "bo": "TRIPLE"
          },
          {
            "atomIds": [
              0,
              1
            ],
            "bo": "SINGLE"
          },
          {
            "atomIds": [
              3,
              0
            ],
            "bo": "SINGLE"
          },
          {
            "atomIds": [
              4,
              1
            ],
            "bo": "SINGLE"
          }
        ]
      },
      "vertexId": 72,
      "buildingBlockId": 0,
      "buildingBlockType": "SCAFFOLD",
      "isRCV": false,
      "properties": {
        "ATTACHMENT_POINTS": "1#Xlig:0:SINGLE:-2.3339%-0.0087%0.8172,Xlig:0:SINGLE:2.3360%-0.0005%0.8290,scaff:0:SINGLE:-0.0095%0.0046%-1.7113 "
      },
      "uniquefyingPropertyKeys": [],
      "allowedMutationTypes": [
        "DELETE",
        "EXTEND",
        "CHANGEBRANCH",
        "CHANGELINK",
        "ADDLINK",
        "DELETELINK",
        "DELETECHAIN"
      ],
      "vertexType": "MolecularFragment"
    },
    {
      "lstAPs": [
        {
          "id": 619193,
          "atomPositionNumber": 0,
          "atomPositionNumberInMol": 5,
          "apClass": {
            "rule": "Xlig",
            "subClass": 1,
            "bndTyp": "SINGLE"
          },
          "dirVec": {
            "x": -0.1753,
            "y": 0.0948,
            "z": -0.4464
          }
        }
      ],
      "lstSymAPs": [],
      "mol": {
        "atoms": [
          {
            "elSymbol": "O",
            "p3d": {
              "x": -0.3534,
              "y": 2.1044,
              "z": -0.7339
            }
          },
          {
            "elSymbol": "C",
            "p3d": {
              "x": -0.5345,
              "y": 2.7646,
              "z": 0.4801
            }
          },
          {
            "elSymbol": "H",
            "p3d": {
              "x": -0.3728,
              "y": 3.8337,
              "z": 0.2724
            }
          },
          {
            "elSymbol": "H",
            "p3d": {
              "x": 0.1816,
              "y": 2.4161,
              "z": 1.2384
            }
          },
          {
            "elSymbol": "H",
            "p3d": {
              "x": -1.553,
              "y": 2.6149,
              "z": 0.8489
            }
          }
        ],
        "bonds": [
          {
            "atomIds": [
              1,
              2
            ],
            "bo": "SINGLE"
          },
          {
            "atomIds": [
              1,
              3
            ],
            "bo": "SINGLE"
          },
          {
            "atomIds": [
              1,
              4
            ],
            "bo": "SINGLE"
          },
          {
            "atomIds": [
              0,
              1
            ],
            "bo": "SINGLE"
          }
        ]
      },
      "vertexId": 80,
      "buildingBlockId": 64,
      "buildingBlockType": "FRAGMENT",
      "isRCV": false,
      "properties": {
        "ATTACHMENT_POINTS": "1#Xlig:1:SINGLE:-0.1753%0.0948%-0.4464 "
      },
      "uniquefyingPropertyKeys": [],
      "allowedMutationTypes": [
        "DELETE",
        "EXTEND",
        "CHANGEBRANCH",
        "CHANGELINK",
        "ADDLINK",
        "DELETELINK",
        "DELETECHAIN"
      ],
      "vertexType": "MolecularFragment"
    },
    {
      "lstAPs": [
        {
          "id": 619194,
          "atomPositionNumber": 0,
          "atomPositionNumberInMol": 10,
          "apClass": {
            "rule": "LMonoAminoPhosphineN",
            "subClass": 0,
            "bndTyp": "SINGLE"
          },
          "dirVec": {
            "x": 3.1471,
            "y": 10.0719,
            "z": 6.8843
          }
        },
        {
          "id": 619195,
          "atomPositionNumber": 0,
          "atomPositionNumberInMol": 10,
          "apClass": {
            "rule": "LMonoAminoPhosphineSubR",
            "subClass": 0,
            "bndTyp": "SINGLE"
          },
          "dirVec": {
            "x": 0.3842,
            "y": 9.4902,
            "z": 6.7015
          }
        },
        {
          "id": 619196,
          "atomPositionNumber": 0,
          "atomPositionNumberInMol": 10,
          "apClass": {
            "rule": "LMonoAminoPhosphineSubR",
            "subClass": 0,
            "bndTyp": "SINGLE"
          },
          "dirVec": {
            "x": 2.2197,
            "y": 7.8057,
            "z": 8.2724
          }
        },
        {
          "id": 619197,
          "atomPositionNumber": 0,
          "atomPositionNumberInMol": 10,
          "apClass": {
            "rule": "MMonoAminoPhosphine",
            "subClass": 1,
            "bndTyp": "SINGLE"
          },
          "dirVec": {
            "x": 2.6023,
            "y": 7.6121,
            "z": 4.8117
          }
        }
      ],
      "lstSymAPs": [
        {
          "symIds": [
            1,
            2
          ]
        }
      ],
      "mol": {
        "atoms": [
          {
            "elSymbol": "P",
            "p3d": {
              "x": 2.1045,
              "y": 8.7901,
              "z": 6.7495
            }
          }
        ],
        "bonds": []
      },
      "vertexId": 101,
      "buildingBlockId": 3,
      "buildingBlockType": "FRAGMENT",
      "isRCV": false,
      "properties": {
        "ATTACHMENT_POINTS": "1#LMonoAminoPhosphineN:0:SINGLE:3.1471%10.0719%6.8843,LMonoAminoPhosphineSubR:0:SINGLE:0.3842%9.4902%6.7015,LMonoAminoPhosphineSubR:0:SINGLE:2.2197%7.8057%8.2724,MMonoAminoPhosphine:1:SINGLE:2.6023%7.6121%4.8117 "
      },
      "uniquefyingPropertyKeys": [],
      "allowedMutationTypes": [
        "DELETE",
        "EXTEND",
        "CHANGEBRANCH",
        "CHANGELINK",
        "ADDLINK",
        "DELETELINK",
        "DELETECHAIN"
      ],
      "vertexType": "MolecularFragment"
    },
    {
      "lstAPs": [
        {
          "id": 619198,
          "atomPositionNumber": 0,
          "atomPositionNumberInMol": 60,
          "apClass": {
            "rule": "Xlig",
            "subClass": 1,
            "bndTyp": "SINGLE"
          },
          "dirVec": {
            "x": -0.1753,
            "y": 0.0948,
            "z": -0.4464
          }
        }
      ],
      "lstSymAPs": [],
      "mol": {
        "atoms": [
          {
            "elSymbol": "O",
            "p3d": {
              "x": -0.3534,
              "y": 2.1044,
              "z": -0.7339
            }
          },
          {
            "elSymbol": "C",
            "p3d": {
              "x": -0.5345,
              "y": 2.7646,
              "z": 0.4801
            }
          },
          {
            "elSymbol": "H",
            "p3d": {
              "x": -0.3728,
              "y": 3.8337,
              "z": 0.2724
            }
          },
          {
            "elSymbol": "H",
            "p3d": {
              "x": 0.1816,
              "y": 2.4161,
              "z": 1.2384
            }
          },
          {
            "elSymbol": "H",
            "p3d": {
              "x": -1.553,
              "y": 2.6149,
              "z": 0.8489
            }
          }
        ],
        "bonds": [
          {
            "atomIds": [
              1,
              2
            ],
            "bo": "SINGLE"
          },
          {
            "atomIds": [
              1,
              3
            ],
            "bo": "SINGLE"
          },
          {
            "atomIds": [
              1,
              4
            ],
            "bo": "SINGLE"
          },
          {
            "atomIds": [
              0,
              1
            ],
            "bo": "SINGLE"
          }
        ]
      },
      "vertexId": 86,
      "buildingBlockId": 64,
      "buildingBlockType": "FRAGMENT",
      "isRCV": false,
      "properties": {
        "ATTACHMENT_POINTS": "1#Xlig:1:SINGLE:-0.1753%0.0948%-0.4464 "
      },
      "uniquefyingPropertyKeys": [],
      "allowedMutationTypes": [
        "DELETE",
        "EXTEND",
        "CHANGEBRANCH",
        "CHANGELINK",
        "ADDLINK",
        "DELETELINK",
        "DELETECHAIN"
      ],
      "vertexType": "MolecularFragment"
    },
    {
      "lstAPs": [
        {
          "id": 619199,
          "atomPositionNumber": 0,
          "atomPositionNumberInMol": 11,
          "apClass": {
            "rule": "LAminoPhosphineN",
            "subClass": 1,
            "bndTyp": "SINGLE"
          },
          "dirVec": {
            "x": 6.6462,
            "y": 11.4323,
            "z": 3.6382
          }
        },
        {
          "id": 619200,
          "atomPositionNumber": 0,
          "atomPositionNumberInMol": 11,
          "apClass": {
            "rule": "AminoPhosphineSubN",
            "subClass": 0,
            "bndTyp": "SINGLE"
          },
          "dirVec": {
            "x": 8.2507,
            "y": 9.4804,
            "z": 2.5125
          }
        },
        {
          "id": 619201,
          "atomPositionNumber": 0,
          "atomPositionNumberInMol": 11,
          "apClass": {
            "rule": "AminoPhosphineSubN",
            "subClass": 0,
            "bndTyp": "SINGLE"
          },
          "dirVec": {
            "x": 8.652,
            "y": 10.1585,
            "z": 4.8699
          }
        }
      ],
      "lstSymAPs": [
        {
          "symIds": [
            1,
            2
          ]
        }
      ],
      "mol": {
        "atoms": [
          {
            "elSymbol": "N",
            "p3d": {
              "x": 7.9829,
              "y": 10.4428,
              "z": 3.602
            }
          }
        ],
        "bonds": []
      },
      "vertexId": 69877,
      "buildingBlockId": 5,
      "buildingBlockType": "FRAGMENT",
      "isRCV": false,
      "properties": {
        "ATTACHMENT_POINTS": "1#LAminoPhosphineN:1:SINGLE:6.6462%11.4323%3.6382,AminoPhosphineSubN:0:SINGLE:8.2507%9.4804%2.5125,AminoPhosphineSubN:0:SINGLE:8.6520%10.1585%4.8699 "
      },
      "uniquefyingPropertyKeys": [],
      "allowedMutationTypes": [
        "DELETE",
        "EXTEND",
        "CHANGEBRANCH",
        "CHANGELINK",
        "ADDLINK",
        "DELETELINK",
        "DELETECHAIN"
      ],
      "vertexType": "MolecularFragment"
    },
    {
      "lstAPs": [
        {
          "id": 619202,
          "atomPositionNumber": 2,
          "atomPositionNumberInMol": 28,
          "apClass": {
            "rule": "SubArM",
            "subClass": 1,
            "bndTyp": "SINGLE"
          },
          "dirVec": {
            "x": 0.2839,
            "y": 0.3907,
            "z": -0.6271
          }
        }
      ],
      "lstSymAPs": [],
      "mol": {
        "atoms": [
          {
            "elSymbol": "H",
            "p3d": {
              "x": 1.8079,
              "y": 2.6521,
              "z": -0.6457
            }
          },
          {
            "elSymbol": "C",
            "p3d": {
              "x": 2.3292,
              "y": 1.8028,
              "z": -1.1346
            }
          },
          {
            "elSymbol": "C",
            "p3d": {
              "x": 1.6928,
              "y": 0.5701,
              "z": -1.2214
            }
          },
          {
            "elSymbol": "C",
            "p3d": {
              "x": 4.26,
              "y": 0.9161,
              "z": -2.2564
            }
          },
          {
            "elSymbol": "C",
            "p3d": {
              "x": 2.3547,
              "y": -0.5116,
              "z": -1.8205
            }
          },
          {
            "elSymbol": "C",
            "p3d": {
              "x": 3.6118,
              "y": 1.9867,
              "z": -1.654
            }
          },
          {
            "elSymbol": "C",
            "p3d": {
              "x": 3.6519,
              "y": -0.333,
              "z": -2.339
            }
          },
          {
            "elSymbol": "C",
            "p3d": {
              "x": 1.7318,
              "y": -1.7781,
              "z": -1.8989
            }
          },
          {
            "elSymbol": "H",
            "p3d": {
              "x": 4.0936,
              "y": 2.9609,
              "z": -1.5808
            }
          },
          {
            "elSymbol": "H",
            "p3d": {
              "x": 5.3077,
              "y": -1.3005,
              "z": -3.3639
            }
          },
          {
            "elSymbol": "H",
            "p3d": {
              "x": 5.2705,
              "y": 1.0583,
              "z": -2.6578
            }
          },
          {
            "elSymbol": "C",
            "p3d": {
              "x": 2.3998,
              "y": -2.8526,
              "z": -2.5007
            }
          },
          {
            "elSymbol": "H",
            "p3d": {
              "x": 0.724,
              "y": -1.9306,
              "z": -1.4908
            }
          },
          {
            "elSymbol": "H",
            "p3d": {
              "x": 1.9155,
              "y": -3.8304,
              "z": -2.576
            }
          },
          {
            "elSymbol": "C",
            "p3d": {
              "x": 3.684,
              "y": -2.6697,
              "z": -3.0355
            }
          },
          {
            "elSymbol": "H",
            "p3d": {
              "x": 4.2028,
              "y": -3.5195,
              "z": -3.4955
            }
          },
          {
            "elSymbol": "C",
            "p3d": {
              "x": 4.3092,
              "y": -1.4197,
              "z": -2.9387
            }
          }
        ],
        "bonds": [
          {
            "atomIds": [
              0,
              1
            ],
            "bo": "SINGLE"
          },
          {
            "atomIds": [
              1,
              2
            ],
            "bo": "SINGLE"
          },
          {
            "atomIds": [
              1,
              5
            ],
            "bo": "DOUBLE"
          },
          {
            "atomIds": [
              2,
              4
            ],
            "bo": "DOUBLE"
          },
          {
            "atomIds": [
              4,
              6
            ],
            "bo": "SINGLE"
          },
          {
            "atomIds": [
              3,
              5
            ],
            "bo": "SINGLE"
          },
          {
            "atomIds": [
              3,
              6
            ],
            "bo": "DOUBLE"
          },
          {
            "atomIds": [
              7,
              4
            ],
            "bo": "SINGLE"
          },
          {
            "atomIds": [
              6,
              16
            ],
            "bo": "SINGLE"
          },
          {
            "atomIds": [
              7,
              11
            ],
            "bo": "DOUBLE"
          },
          {
            "atomIds": [
              11,
              14
            ],
            "bo": "SINGLE"
          },
          {
            "atomIds": [
              14,
              16
            ],
            "bo": "DOUBLE"
          },
          {
            "atomIds": [
              3,
              10
            ],
            "bo": "SINGLE"
          },
          {
            "atomIds": [
              5,
              8
            ],
            "bo": "SINGLE"
          },
          {
            "atomIds": [
              7,
              12
            ],
            "bo": "SINGLE"
          },
          {
            "atomIds": [
              9,
              16
            ],
            "bo": "SINGLE"
          },
          {
            "atomIds": [
              14,
              15
            ],
            "bo": "SINGLE"
          },
          {
            "atomIds": [
              11,
              13
            ],
            "bo": "SINGLE"
          }
        ]
      },
      "vertexId": 69887,
      "buildingBlockId": 38,
      "buildingBlockType": "FRAGMENT",
      "isRCV": false,
      "properties": {
        "ATTACHMENT_POINTS": "3#SubArM:1:SINGLE:0.2839%0.3907%-0.6271 "
      },
      "uniquefyingPropertyKeys": [],
      "allowedMutationTypes": [
        "DELETE",
        "EXTEND",
        "CHANGEBRANCH",
        "CHANGELINK",
        "ADDLINK",
        "DELETELINK",
        "DELETECHAIN"
      ],
      "vertexType": "MolecularFragment"
    },
    {
      "lstAPs": [
        {
          "id": 619203,
          "atomPositionNumber": 2,
          "atomPositionNumberInMol": 45,
          "apClass": {
            "rule": "SubArM",
            "subClass": 1,
            "bndTyp": "SINGLE"
          },
          "dirVec": {
            "x": 0.2839,
            "y": 0.3907,
            "z": -0.6271
          }
        }
      ],
      "lstSymAPs": [],
      "mol": {
        "atoms": [
          {
            "elSymbol": "H",
            "p3d": {
              "x": 1.8079,
              "y": 2.6521,
              "z": -0.6457
            }
          },
          {
            "elSymbol": "C",
            "p3d": {
              "x": 2.3292,
              "y": 1.8028,
              "z": -1.1346
            }
          },
          {
            "elSymbol": "C",
            "p3d": {
              "x": 1.6928,
              "y": 0.5701,
              "z": -1.2214
            }
          },
          {
            "elSymbol": "C",
            "p3d": {
              "x": 4.26,
              "y": 0.9161,
              "z": -2.2564
            }
          },
          {
            "elSymbol": "C",
            "p3d": {
              "x": 2.3547,
              "y": -0.5116,
              "z": -1.8205
            }
          },
          {
            "elSymbol": "C",
            "p3d": {
              "x": 3.6118,
              "y": 1.9867,
              "z": -1.654
            }
          },
          {
            "elSymbol": "C",
            "p3d": {
              "x": 3.6519,
              "y": -0.333,
              "z": -2.339
            }
          },
          {
            "elSymbol": "C",
            "p3d": {
              "x": 1.7318,
              "y": -1.7781,
              "z": -1.8989
            }
          },
          {
            "elSymbol": "H",
            "p3d": {
              "x": 4.0936,
              "y": 2.9609,
              "z": -1.5808
            }
          },
          {
            "elSymbol": "H",
            "p3d": {
              "x": 5.3077,
              "y": -1.3005,
              "z": -3.3639
            }
          },
          {
            "elSymbol": "H",
            "p3d": {
              "x": 5.2705,
              "y": 1.0583,
              "z": -2.6578
            }
          },
          {
            "elSymbol": "C",
            "p3d": {
              "x": 2.3998,
              "y": -2.8526,
              "z": -2.5007
            }
          },
          {
            "elSymbol": "H",
            "p3d": {
              "x": 0.724,
              "y": -1.9306,
              "z": -1.4908
            }
          },
          {
            "elSymbol": "H",
            "p3d": {
              "x": 1.9155,
              "y": -3.8304,
              "z": -2.576
            }
          },
          {
            "elSymbol": "C",
            "p3d": {
              "x": 3.684,
              "y": -2.6697,
              "z": -3.0355
            }
          },
          {
            "elSymbol": "H",
            "p3d": {
              "x": 4.2028,
              "y": -3.5195,
              "z": -3.4955
            }
          },
          {
            "elSymbol": "C",
            "p3d": {
              "x": 4.3092,
              "y": -1.4197,
              "z": -2.9387
            }
          }
        ],
        "bonds": [
          {
            "atomIds": [
              0,
              1
            ],
            "bo": "SINGLE"
          },
          {
            "atomIds": [
              1,
              2
            ],
            "bo": "SINGLE"
          },
          {
            "atomIds": [
              1,
              5
            ],
            "bo": "DOUBLE"
          },
          {
            "atomIds": [
              2,
              4
            ],
            "bo": "DOUBLE"
          },
          {
            "atomIds": [
              4,
              6
            ],
            "bo": "SINGLE"
          },
          {
            "atomIds": [
              3,
              5
            ],
            "bo": "SINGLE"
          },
          {
            "atomIds": [
              3,
              6
            ],
            "bo": "DOUBLE"
          },
          {
            "atomIds": [
              7,
              4
            ],
            "bo": "SINGLE"
          },
          {
            "atomIds": [
              6,
              16
            ],
            "bo": "SINGLE"
          },
          {
            "atomIds": [
              7,
              11
            ],
            "bo": "DOUBLE"
          },
          {
            "atomIds": [
              11,
              14
            ],
            "bo": "SINGLE"
          },
          {
            "atomIds": [
              14,
              16
            ],
            "bo": "DOUBLE"
          },
          {
            "atomIds": [
              3,
              10
            ],
            "bo": "SINGLE"
          },
          {
            "atomIds": [
              5,
              8
            ],
            "bo": "SINGLE"
          },
          {
            "atomIds": [
              7,
              12
            ],
            "bo": "SINGLE"
          },
          {
            "atomIds": [
              9,
              16
            ],
            "bo": "SINGLE"
          },
          {
            "atomIds": [
              14,
              15
            ],
            "bo": "SINGLE"
          },
          {
            "atomIds": [
              11,
              13
            ],
            "bo": "SINGLE"
          }
        ]
      },
      "vertexId": 70717,
      "buildingBlockId": 38,
      "buildingBlockType": "FRAGMENT",
      "isRCV": false,
      "properties": {
        "ATTACHMENT_POINTS": "3#SubArM:1:SINGLE:0.2839%0.3907%-0.6271 "
      },
      "uniquefyingPropertyKeys": [],
      "allowedMutationTypes": [
        "DELETE",
        "EXTEND",
        "CHANGEBRANCH",
        "CHANGELINK",
        "ADDLINK",
        "DELETELINK",
        "DELETECHAIN"
      ],
      "vertexType": "MolecularFragment"
    },
    {
      "lstAPs": [
        {
          "id": 619252,
          "atomPositionNumber": 1,
          "atomPositionNumberInMol": 13,
          "apClass": {
            "rule": "SubRS",
            "subClass": 1,
            "bndTyp": "SINGLE"
          },
          "dirVec": {
            "x": 0.2985,
            "y": 0.384,
            "z": -0.6258
          }
        }
      ],
      "lstSymAPs": [],
      "mol": {
        "atoms": [
          {
            "elSymbol": "C",
            "p3d": {
              "x": -1.0244,
              "y": -0.2225,
              "z": 1.3991
            }
          },
          {
            "elSymbol": "C",
            "p3d": {
              "x": 0.3973,
              "y": -0.042,
              "z": 0.8195
            }
          },
          {
            "elSymbol": "H",
            "p3d": {
              "x": -1.5635,
              "y": -0.9908,
              "z": 0.8263
            }
          },
          {
            "elSymbol": "H",
            "p3d": {
              "x": -0.941,
              "y": -0.535,
              "z": 2.446
            }
          },
          {
            "elSymbol": "H",
            "p3d": {
              "x": -1.5586,
              "y": 0.7335,
              "z": 1.3382
            }
          },
          {
            "elSymbol": "H",
            "p3d": {
              "x": 0.9335,
              "y": 0.7221,
              "z": 1.4011
            }
          },
          {
            "elSymbol": "H",
            "p3d": {
              "x": 0.927,
              "y": -1.0102,
              "z": 0.9001
            }
          }
        ],
        "bonds": [
          {
            "atomIds": [
              0,
              1
            ],
            "bo": "SINGLE"
          },
          {
            "atomIds": [
              0,
              2
            ],
            "bo": "SINGLE"
          },
          {
            "atomIds": [
              0,
              3
            ],
            "bo": "SINGLE"
          },
          {
            "atomIds": [
              0,
              4
            ],
            "bo": "SINGLE"
          },
          {
            "atomIds": [
              1,
              5
            ],
            "bo": "SINGLE"
          },
          {
            "atomIds": [
              1,
              6
            ],
            "bo": "SINGLE"
          }
        ]
      },
      "vertexId": 557144,
      "buildingBlockId": 31,
      "buildingBlockType": "FRAGMENT",
      "isRCV": false,
      "properties": {
        "ATTACHMENT_POINTS": "2#SubRS:1:SINGLE:0.2985%0.3840%-0.6258 "
      },
      "uniquefyingPropertyKeys": [],
      "allowedMutationTypes": [
        "DELETE",
        "EXTEND",
        "CHANGEBRANCH",
        "CHANGELINK",
        "ADDLINK",
        "DELETELINK",
        "DELETECHAIN"
      ],
      "vertexType": "MolecularFragment"
    },
    {
      "lstAPs": [
        {
          "id": 619253,
          "atomPositionNumber": 1,
          "atomPositionNumberInMol": 20,
          "apClass": {
            "rule": "SubRS",
            "subClass": 1,
            "bndTyp": "SINGLE"
          },
          "dirVec": {
            "x": 0.2985,
            "y": 0.384,
            "z": -0.6258
          }
        }
      ],
      "lstSymAPs": [],
      "mol": {
        "atoms": [
          {
            "elSymbol": "C",
            "p3d": {
              "x": -1.0244,
              "y": -0.2225,
              "z": 1.3991
            }
          },
          {
            "elSymbol": "C",
            "p3d": {
              "x": 0.3973,
              "y": -0.042,
              "z": 0.8195
            }
          },
          {
            "elSymbol": "H",
            "p3d": {
              "x": -1.5635,
              "y": -0.9908,
              "z": 0.8263
            }
          },
          {
            "elSymbol": "H",
            "p3d": {
              "x": -0.941,
              "y": -0.535,
              "z": 2.446
            }
          },
          {
            "elSymbol": "H",
            "p3d": {
              "x": -1.5586,
              "y": 0.7335,
              "z": 1.3382
            }
          },
          {
            "elSymbol": "H",
            "p3d": {
              "x": 0.9335,
              "y": 0.7221,
              "z": 1.4011
            }
          },
          {
            "elSymbol": "H",
            "p3d": {
              "x": 0.927,
              "y": -1.0102,
              "z": 0.9001
            }
          }
        ],
        "bonds": [
          {
            "atomIds": [
              0,
              1
            ],
            "bo": "SINGLE"
          },
          {
            "atomIds": [
              0,
              2
            ],
            "bo": "SINGLE"
          },
          {
            "atomIds": [
              0,
              3
            ],
            "bo": "SINGLE"
          },
          {
            "atomIds": [
              0,
              4
            ],
            "bo": "SINGLE"
          },
          {
            "atomIds": [
              1,
              5
            ],
            "bo": "SINGLE"
          },
          {
            "atomIds": [
              1,
              6
            ],
            "bo": "SINGLE"
          }
        ]
      },
      "vertexId": 557170,
      "buildingBlockId": 31,
      "buildingBlockType": "FRAGMENT",
      "isRCV": false,
      "properties": {
        "ATTACHMENT_POINTS": "2#SubRS:1:SINGLE:0.2985%0.3840%-0.6258 "
      },
      "uniquefyingPropertyKeys": [],
      "allowedMutationTypes": [
        "DELETE",
        "EXTEND",
        "CHANGEBRANCH",
        "CHANGELINK",
        "ADDLINK",
        "DELETELINK",
        "DELETECHAIN"
      ],
      "vertexType": "MolecularFragment"
    }
  ],
  "gEdges": [
    {
      "srcAPID": 619190,
      "trgAPID": 619193,
      "bondType": "SINGLE"
    },
    {
      "srcAPID": 619192,
      "trgAPID": 619197,
      "bondType": "SINGLE"
    },
    {
      "srcAPID": 619191,
      "trgAPID": 619198,
      "bondType": "SINGLE"
    },
    {
      "srcAPID": 619194,
      "trgAPID": 619199,
      "bondType": "SINGLE"
    },
    {
      "srcAPID": 619195,
      "trgAPID": 619202,
      "bondType": "SINGLE"
    },
    {
      "srcAPID": 619196,
      "trgAPID": 619203,
      "bondType": "SINGLE"
    },
    {
      "srcAPID": 619200,
      "trgAPID": 619252,
      "bondType": "SINGLE"
    },
    {
      "srcAPID": 619201,
      "trgAPID": 619253,
      "bondType": "SINGLE"
    }
  ],
  "gRings": [],
  "symVertices": [
    {
      "symIds": [
        69887,
        70717
      ]
    },
    {
      "symIds": [
        557144,
        557170
      ]
    }
  ]
}

> <SMILES>
[Pt](C#O)(OC([H])([H])[H])([P](N(C(C([H])([H])[H])([H])[H])C(C([H])([H])[H])([H])[H])(C=1C([H])=C(C(=C2C1C(=C(C(=C2[H])[H])[H])[H])[H])[H])C=3C([H])=C(C(=C4C3C(=C(C(=C4[H])[H])[H])[H])[H])[H])OC([H])([H])[H]

$$$$
