M00006219
  CDK     04222210563D

 67 69  0  0  0  0  0  0  0  0999 V2000
   -0.8932   -2.6994   -0.4193 Pt  0  0  0  0  0  0  0  0  0  0  0  0
   -0.8590   -4.6402   -0.3940 C   0  0  0  0  0  0  0  0  0  0  0  0
   -0.8422   -5.7817   -0.3837 O   0  0  0  0  0  0  0  0  0  0  0  0
   -3.2092   -3.0374   -0.3305 S   0  0  0  0  0  0  0  0  0  0  0  0
   -3.3843   -2.8605    1.4669 C   0  0  0  0  0  0  0  0  0  0  0  0
   -3.7842   -1.8735    1.7204 H   0  0  0  0  0  0  0  0  0  0  0  0
   -2.4208   -2.9918    1.9726 H   0  0  0  0  0  0  0  0  0  0  0  0
   -4.0815   -3.6211    1.8370 H   0  0  0  0  0  0  0  0  0  0  0  0
   -0.9229   -0.4047   -0.4461 P   0  0  0  0  0  0  0  0  0  0  0  0
    0.4196    0.3989   -1.4627 C   0  0  0  0  0  0  0  0  0  0  0  0
    1.2993    0.9646   -0.6125 C   0  0  0  0  0  0  0  0  0  0  0  0
    0.9325    0.9038    0.8493 C   0  0  0  0  0  0  0  0  0  0  0  0
   -0.2372    0.2984    1.1371 C   0  0  0  0  0  0  0  0  0  0  0  0
   -0.9794    0.1093    2.3764 C   0  0  0  0  0  0  0  0  0  0  0  0
   -2.4395   -0.2520    4.7423 C   0  0  0  0  0  0  0  0  0  0  0  0
   -1.8341    1.1244    2.8405 C   0  0  0  0  0  0  0  0  0  0  0  0
   -0.8723   -1.0927    3.0960 C   0  0  0  0  0  0  0  0  0  0  0  0
   -1.5969   -1.2667    4.2769 C   0  0  0  0  0  0  0  0  0  0  0  0
   -2.5583    0.9400    4.0207 C   0  0  0  0  0  0  0  0  0  0  0  0
   -1.9290    2.0533    2.2816 H   0  0  0  0  0  0  0  0  0  0  0  0
   -0.2176   -1.8917    2.7255 H   0  0  0  0  0  0  0  0  0  0  0  0
   -1.5068   -2.1975    4.8363 H   0  0  0  0  0  0  0  0  0  0  0  0
   -3.2190    1.7285    4.3795 H   0  0  0  0  0  0  0  0  0  0  0  0
   -3.0038   -0.3911    5.6627 H   0  0  0  0  0  0  0  0  0  0  0  0
   -3.0571    0.0625   -2.2015 C   0  0  0  0  0  0  0  0  0  0  0  0
   -2.5694    0.4332   -0.8133 C   0  0  0  0  0  0  0  0  0  0  0  0
   -4.0222    0.5497   -2.4067 H   0  0  0  0  0  0  0  0  0  0  0  0
   -2.3775    0.3691   -3.0088 H   0  0  0  0  0  0  0  0  0  0  0  0
   -3.2453   -1.0197   -2.3151 H   0  0  0  0  0  0  0  0  0  0  0  0
   -2.4631    1.5316   -0.7084 H   0  0  0  0  0  0  0  0  0  0  0  0
   -3.3130    0.1103   -0.0479 H   0  0  0  0  0  0  0  0  0  0  0  0
    0.3684    0.3232   -2.9176 C   0  0  0  0  0  0  0  0  0  0  0  0
    0.2317    0.1920   -5.7139 C   0  0  0  0  0  0  0  0  0  0  0  0
    0.7580   -0.8487   -3.5875 C   0  0  0  0  0  0  0  0  0  0  0  0
   -0.0944    1.4276   -3.6548 C   0  0  0  0  0  0  0  0  0  0  0  0
   -0.1600    1.3577   -5.0482 C   0  0  0  0  0  0  0  0  0  0  0  0
    0.6898   -0.9079   -4.9814 C   0  0  0  0  0  0  0  0  0  0  0  0
    1.1235   -1.7083   -3.0193 H   0  0  0  0  0  0  0  0  0  0  0  0
   -0.4017    2.3350   -3.1388 H   0  0  0  0  0  0  0  0  0  0  0  0
   -0.5176    2.2143   -5.6174 H   0  0  0  0  0  0  0  0  0  0  0  0
    0.9948   -1.8177   -5.4982 H   0  0  0  0  0  0  0  0  0  0  0  0
    0.1792    0.1400   -6.7997 H   0  0  0  0  0  0  0  0  0  0  0  0
    2.2746    3.0372   -1.6111 C   0  0  0  0  0  0  0  0  0  0  0  0
    2.5824    1.6520   -1.0315 C   0  0  0  0  0  0  0  0  0  0  0  0
    3.3872    0.7926   -2.0085 C   0  0  0  0  0  0  0  0  0  0  0  0
    3.4719   -0.2440   -1.6542 H   0  0  0  0  0  0  0  0  0  0  0  0
    4.4002    1.1854   -2.1417 H   0  0  0  0  0  0  0  0  0  0  0  0
    2.9211    0.7496   -3.0015 H   0  0  0  0  0  0  0  0  0  0  0  0
    1.6811    3.6435   -0.9196 H   0  0  0  0  0  0  0  0  0  0  0  0
    3.1998    3.5846   -1.8261 H   0  0  0  0  0  0  0  0  0  0  0  0
    1.7203    2.9648   -2.5553 H   0  0  0  0  0  0  0  0  0  0  0  0
    3.2261    1.8011   -0.1133 H   0  0  0  0  0  0  0  0  0  0  0  0
    2.2557    0.4575    2.9280 C   0  0  0  0  0  0  0  0  0  0  0  0
    1.8642    1.5046    1.8812 C   0  0  0  0  0  0  0  0  0  0  0  0
    1.2375    2.7462    2.5221 C   0  0  0  0  0  0  0  0  0  0  0  0
    1.9529    3.2475    3.1846 H   0  0  0  0  0  0  0  0  0  0  0  0
    0.3618    2.4899    3.1321 H   0  0  0  0  0  0  0  0  0  0  0  0
    0.9174    3.4725    1.7678 H   0  0  0  0  0  0  0  0  0  0  0  0
    1.4225    0.2219    3.6025 H   0  0  0  0  0  0  0  0  0  0  0  0
    2.5662   -0.4872    2.4499 H   0  0  0  0  0  0  0  0  0  0  0  0
    3.0869    0.8086    3.5483 H   0  0  0  0  0  0  0  0  0  0  0  0
    2.8163    1.8313    1.3642 H   0  0  0  0  0  0  0  0  0  0  0  0
    1.4459   -2.8817   -0.4920 S   0  0  0  0  0  0  0  0  0  0  0  0
    1.7540   -2.7340    1.2897 C   0  0  0  0  0  0  0  0  0  0  0  0
    2.3753   -3.5721    1.6231 H   0  0  0  0  0  0  0  0  0  0  0  0
    0.8098   -2.7414    1.8582 H   0  0  0  0  0  0  0  0  0  0  0  0
    2.2844   -1.7934    1.5086 H   0  0  0  0  0  0  0  0  0  0  0  0
  2  3  3  0  0  0  0
  1  2  1  0  0  0  0
  5  6  1  0  0  0  0
  5  7  1  0  0  0  0
  5  8  1  0  0  0  0
  4  5  1  0  0  0  0
  1  4  1  0  0  0  0
 10  9  1  0  0  0  0
 11 10  2  0  0  0  0
 12 11  1  0  0  0  0
 13  9  1  0  0  0  0
 12 13  2  0  0  0  0
  1  9  1  0  0  0  0
 14 17  1  0  0  0  0
 17 18  2  0  0  0  0
 15 18  1  0  0  0  0
 15 19  2  0  0  0  0
 16 19  1  0  0  0  0
 14 16  2  0  0  0  0
 18 22  1  0  0  0  0
 19 23  1  0  0  0  0
 15 24  1  0  0  0  0
 16 20  1  0  0  0  0
 17 21  1  0  0  0  0
 13 14  1  0  0  0  0
 25 26  1  0  0  0  0
 25 27  1  0  0  0  0
 25 28  1  0  0  0  0
 25 29  1  0  0  0  0
 26 30  1  0  0  0  0
 26 31  1  0  0  0  0
  9 26  1  0  0  0  0
 32 35  1  0  0  0  0
 35 36  2  0  0  0  0
 33 36  1  0  0  0  0
 33 37  2  0  0  0  0
 34 37  1  0  0  0  0
 32 34  2  0  0  0  0
 36 40  1  0  0  0  0
 37 41  1  0  0  0  0
 33 42  1  0  0  0  0
 34 38  1  0  0  0  0
 35 39  1  0  0  0  0
 10 32  1  0  0  0  0
 43 44  1  0  0  0  0
 44 45  1  0  0  0  0
 45 46  1  0  0  0  0
 45 47  1  0  0  0  0
 45 48  1  0  0  0  0
 43 49  1  0  0  0  0
 43 50  1  0  0  0  0
 43 51  1  0  0  0  0
 44 52  1  0  0  0  0
 11 44  1  0  0  0  0
 53 54  1  0  0  0  0
 54 55  1  0  0  0  0
 55 56  1  0  0  0  0
 55 57  1  0  0  0  0
 55 58  1  0  0  0  0
 53 59  1  0  0  0  0
 53 60  1  0  0  0  0
 53 61  1  0  0  0  0
 54 62  1  0  0  0  0
 12 54  1  0  0  0  0
 64 65  1  0  0  0  0
 64 66  1  0  0  0  0
 64 67  1  0  0  0  0
 63 64  1  0  0  0  0
  1 63  1  0  0  0  0
M  END
> <PM6_ENERGY>
8.709

> <UID>
GOKWBPKBGHCHRD-LPFWMUDFNA-L

> <FITNESS>
1.14167

> <GCODE>
7050

> <GraphENC>
7050 72_1_0,79_64_1,116_56_1,85_64_1,141306_36_1,139734_32_1,139745_36_1,139751_33_1,141307_33_1, 72_0_79_0_SINGLE_Xlig:0_Xlig:1,72_2_116_1_SINGLE_scaff:0_MPhosphole:1,72_1_85_0_SINGLE_Xlig:0_Xlig:1,116_5_141306_0_SINGLE_LPhospholeSubAlpha:0_SubArS:1,116_0_139734_0_SINGLE_LPhospholeSubR:0_SubRS:1,116_2_139745_0_SINGLE_LPhospholeSubAlpha:0_SubArS:1,116_3_139751_0_SINGLE_LPhospholeSubBeta:0_SubRM:1,116_4_141307_0_SINGLE_LPhospholeSubBeta:0_SubRM:1, SymmetricSet [symIds=[141306, 139745]] SymmetricSet [symIds=[139751, 141307]] 

> <GraphJson>
{
  "graphId": 7050,
  "gVertices": [
    {
      "lstAPs": [
        {
          "id": 185185,
          "atomPositionNumber": 0,
          "atomPositionNumberInMol": 0,
          "apClass": {
            "rule": "Xlig",
            "subClass": 0,
            "bndTyp": "SINGLE"
          },
          "dirVec": {
            "x": -2.3339,
            "y": -0.0087,
            "z": 0.8172
          }
        },
        {
          "id": 185186,
          "atomPositionNumber": 0,
          "atomPositionNumberInMol": 0,
          "apClass": {
            "rule": "Xlig",
            "subClass": 0,
            "bndTyp": "SINGLE"
          },
          "dirVec": {
            "x": 2.336,
            "y": -5.0E-4,
            "z": 0.829
          }
        },
        {
          "id": 185187,
          "atomPositionNumber": 0,
          "atomPositionNumberInMol": 0,
          "apClass": {
            "rule": "scaff",
            "subClass": 0,
            "bndTyp": "SINGLE"
          },
          "dirVec": {
            "x": -0.0095,
            "y": 0.0046,
            "z": -1.7113
          }
        }
      ],
      "lstSymAPs": [
        {
          "symIds": [
            0,
            1
          ]
        }
      ],
      "mol": {
        "atoms": [
          {
            "elSymbol": "Pt",
            "p3d": {
              "x": -0.0098,
              "y": 0.0049,
              "z": 0.6289
            }
          },
          {
            "elSymbol": "C",
            "p3d": {
              "x": -6.0E-4,
              "y": 0.0016,
              "z": 2.5609
            }
          },
          {
            "elSymbol": "O",
            "p3d": {
              "x": 0.0025,
              "y": -0.0041,
              "z": 3.6974
            }
          },
          {
            "elSymbol": "Du",
            "p3d": {
              "x": -0.007,
              "y": 1.0013,
              "z": 0.6372
            }
          },
          {
            "elSymbol": "Du",
            "p3d": {
              "x": -0.0014,
              "y": 0.9902,
              "z": 2.5698
            }
          }
        ],
        "bonds": [
          {
            "atomIds": [
              1,
              2
            ],
            "bo": "TRIPLE"
          },
          {
            "atomIds": [
              0,
              1
            ],
            "bo": "SINGLE"
          },
          {
            "atomIds": [
              3,
              0
            ],
            "bo": "SINGLE"
          },
          {
            "atomIds": [
              4,
              1
            ],
            "bo": "SINGLE"
          }
        ]
      },
      "vertexId": 72,
      "buildingBlockId": 0,
      "buildingBlockType": "SCAFFOLD",
      "isRCV": false,
      "properties": {
        "ATTACHMENT_POINTS": "1#Xlig:0:SINGLE:-2.3339%-0.0087%0.8172,Xlig:0:SINGLE:2.3360%-0.0005%0.8290,scaff:0:SINGLE:-0.0095%0.0046%-1.7113 "
      },
      "uniquefyingPropertyKeys": [],
      "allowedMutationTypes": [
        "DELETE",
        "EXTEND",
        "CHANGEBRANCH",
        "CHANGELINK",
        "ADDLINK",
        "DELETELINK",
        "DELETECHAIN"
      ],
      "vertexType": "MolecularFragment"
    },
    {
      "lstAPs": [
        {
          "id": 185188,
          "atomPositionNumber": 0,
          "atomPositionNumberInMol": 5,
          "apClass": {
            "rule": "Xlig",
            "subClass": 1,
            "bndTyp": "SINGLE"
          },
          "dirVec": {
            "x": -0.102,
            "y": 0.0185,
            "z": -1.0265
          }
        }
      ],
      "lstSymAPs": [],
      "mol": {
        "atoms": [
          {
            "elSymbol": "S",
            "p3d": {
              "x": -0.3267,
              "y": 2.3403,
              "z": -1.0022
            }
          },
          {
            "elSymbol": "C",
            "p3d": {
              "x": -0.626,
              "y": 2.4866,
              "z": 0.7805
            }
          },
          {
            "elSymbol": "H",
            "p3d": {
              "x": 0.1766,
              "y": 3.089,
              "z": 1.2414
            }
          },
          {
            "elSymbol": "H",
            "p3d": {
              "x": -0.651,
              "y": 1.5065,
              "z": 1.2643
            }
          },
          {
            "elSymbol": "H",
            "p3d": {
              "x": -1.5658,
              "y": 2.981,
              "z": 0.9515
            }
          }
        ],
        "bonds": [
          {
            "atomIds": [
              1,
              2
            ],
            "bo": "SINGLE"
          },
          {
            "atomIds": [
              1,
              3
            ],
            "bo": "SINGLE"
          },
          {
            "atomIds": [
              1,
              4
            ],
            "bo": "SINGLE"
          },
          {
            "atomIds": [
              0,
              1
            ],
            "bo": "SINGLE"
          }
        ]
      },
      "vertexId": 79,
      "buildingBlockId": 63,
      "buildingBlockType": "FRAGMENT",
      "isRCV": false,
      "properties": {
        "ATTACHMENT_POINTS": "1#Xlig:1:SINGLE:-0.1020%0.0185%-1.0265 "
      },
      "uniquefyingPropertyKeys": [],
      "allowedMutationTypes": [
        "DELETE",
        "EXTEND",
        "CHANGEBRANCH",
        "CHANGELINK",
        "ADDLINK",
        "DELETELINK",
        "DELETECHAIN"
      ],
      "vertexType": "MolecularFragment"
    },
    {
      "lstAPs": [
        {
          "id": 185189,
          "atomPositionNumber": 0,
          "atomPositionNumberInMol": 10,
          "apClass": {
            "rule": "LPhospholeSubR",
            "subClass": 0,
            "bndTyp": "SINGLE"
          },
          "dirVec": {
            "x": -0.1583,
            "y": -3.1445,
            "z": -2.0557
          }
        },
        {
          "id": 185190,
          "atomPositionNumber": 0,
          "atomPositionNumberInMol": 10,
          "apClass": {
            "rule": "MPhosphole",
            "subClass": 1,
            "bndTyp": "SINGLE"
          },
          "dirVec": {
            "x": -0.003,
            "y": -0.0033,
            "z": 0.0013
          }
        },
        {
          "id": 185191,
          "atomPositionNumber": 1,
          "atomPositionNumberInMol": 11,
          "apClass": {
            "rule": "LPhospholeSubAlpha",
            "subClass": 0,
            "bndTyp": "SINGLE"
          },
          "dirVec": {
            "x": 3.2115,
            "y": -2.5535,
            "z": -1.0585
          }
        },
        {
          "id": 185192,
          "atomPositionNumber": 2,
          "atomPositionNumberInMol": 12,
          "apClass": {
            "rule": "LPhospholeSubBeta",
            "subClass": 0,
            "bndTyp": "SINGLE"
          },
          "dirVec": {
            "x": 4.2656,
            "y": -1.1283,
            "z": -3.6461
          }
        },
        {
          "id": 185193,
          "atomPositionNumber": 3,
          "atomPositionNumberInMol": 13,
          "apClass": {
            "rule": "LPhospholeSubBeta",
            "subClass": 0,
            "bndTyp": "SINGLE"
          },
          "dirVec": {
            "x": 2.053,
            "y": 0.1072,
            "z": -5.2957
          }
        },
        {
          "id": 185194,
          "atomPositionNumber": 4,
          "atomPositionNumberInMol": 14,
          "apClass": {
            "rule": "LPhospholeSubAlpha",
            "subClass": 0,
            "bndTyp": "SINGLE"
          },
          "dirVec": {
            "x": -0.7998,
            "y": -0.3182,
            "z": -4.0879
          }
        }
      ],
      "lstSymAPs": [
        {
          "symIds": [
            2,
            5
          ]
        },
        {
          "symIds": [
            3,
            4
          ]
        }
      ],
      "mol": {
        "atoms": [
          {
            "elSymbol": "P",
            "p3d": {
              "x": 0.6287,
              "y": -1.5145,
              "z": -1.8705
            }
          },
          {
            "elSymbol": "C",
            "p3d": {
              "x": 2.405,
              "y": -1.8003,
              "z": -2.0775
            }
          },
          {
            "elSymbol": "C",
            "p3d": {
              "x": 2.8079,
              "y": -1.1982,
              "z": -3.1964
            }
          },
          {
            "elSymbol": "C",
            "p3d": {
              "x": 1.7253,
              "y": -0.6,
              "z": -4.0254
            }
          },
          {
            "elSymbol": "C",
            "p3d": {
              "x": 0.5038,
              "y": -0.7649,
              "z": -3.5177
            }
          }
        ],
        "bonds": [
          {
            "atomIds": [
              1,
              0
            ],
            "bo": "SINGLE"
          },
          {
            "atomIds": [
              2,
              1
            ],
            "bo": "DOUBLE"
          },
          {
            "atomIds": [
              3,
              2
            ],
            "bo": "SINGLE"
          },
          {
            "atomIds": [
              4,
              0
            ],
            "bo": "SINGLE"
          },
          {
            "atomIds": [
              3,
              4
            ],
            "bo": "DOUBLE"
          }
        ]
      },
      "vertexId": 116,
      "buildingBlockId": 55,
      "buildingBlockType": "FRAGMENT",
      "isRCV": false,
      "properties": {
        "ATTACHMENT_POINTS": "1#LPhospholeSubR:0:SINGLE:-0.1583%-3.1445%-2.0557,MPhosphole:1:SINGLE:-0.0030%-0.0033%0.0013 2#LPhospholeSubAlpha:0:SINGLE:3.2115%-2.5535%-1.0585 3#LPhospholeSubBeta:0:SINGLE:4.2656%-1.1283%-3.6461 4#LPhospholeSubBeta:0:SINGLE:2.0530%0.1072%-5.2957 5#LPhospholeSubAlpha:0:SINGLE:-0.7998%-0.3182%-4.0879 "
      },
      "uniquefyingPropertyKeys": [],
      "allowedMutationTypes": [
        "DELETE",
        "EXTEND",
        "CHANGEBRANCH",
        "CHANGELINK",
        "ADDLINK",
        "DELETELINK",
        "DELETECHAIN"
      ],
      "vertexType": "MolecularFragment"
    },
    {
      "lstAPs": [
        {
          "id": 185195,
          "atomPositionNumber": 0,
          "atomPositionNumberInMol": 64,
          "apClass": {
            "rule": "Xlig",
            "subClass": 1,
            "bndTyp": "SINGLE"
          },
          "dirVec": {
            "x": -0.102,
            "y": 0.0185,
            "z": -1.0265
          }
        }
      ],
      "lstSymAPs": [],
      "mol": {
        "atoms": [
          {
            "elSymbol": "S",
            "p3d": {
              "x": -0.3267,
              "y": 2.3403,
              "z": -1.0022
            }
          },
          {
            "elSymbol": "C",
            "p3d": {
              "x": -0.626,
              "y": 2.4866,
              "z": 0.7805
            }
          },
          {
            "elSymbol": "H",
            "p3d": {
              "x": 0.1766,
              "y": 3.089,
              "z": 1.2414
            }
          },
          {
            "elSymbol": "H",
            "p3d": {
              "x": -0.651,
              "y": 1.5065,
              "z": 1.2643
            }
          },
          {
            "elSymbol": "H",
            "p3d": {
              "x": -1.5658,
              "y": 2.981,
              "z": 0.9515
            }
          }
        ],
        "bonds": [
          {
            "atomIds": [
              1,
              2
            ],
            "bo": "SINGLE"
          },
          {
            "atomIds": [
              1,
              3
            ],
            "bo": "SINGLE"
          },
          {
            "atomIds": [
              1,
              4
            ],
            "bo": "SINGLE"
          },
          {
            "atomIds": [
              0,
              1
            ],
            "bo": "SINGLE"
          }
        ]
      },
      "vertexId": 85,
      "buildingBlockId": 63,
      "buildingBlockType": "FRAGMENT",
      "isRCV": false,
      "properties": {
        "ATTACHMENT_POINTS": "1#Xlig:1:SINGLE:-0.1020%0.0185%-1.0265 "
      },
      "uniquefyingPropertyKeys": [],
      "allowedMutationTypes": [
        "DELETE",
        "EXTEND",
        "CHANGEBRANCH",
        "CHANGELINK",
        "ADDLINK",
        "DELETELINK",
        "DELETECHAIN"
      ],
      "vertexType": "MolecularFragment"
    },
    {
      "lstAPs": [
        {
          "id": 185244,
          "atomPositionNumber": 0,
          "atomPositionNumberInMol": 15,
          "apClass": {
            "rule": "SubArS",
            "subClass": 1,
            "bndTyp": "SINGLE"
          },
          "dirVec": {
            "x": 0.2973,
            "y": 0.3873,
            "z": -0.6389
          }
        }
      ],
      "lstSymAPs": [],
      "mol": {
        "atoms": [
          {
            "elSymbol": "C",
            "p3d": {
              "x": 1.6995,
              "y": 0.5593,
              "z": -1.2083
            }
          },
          {
            "elSymbol": "C",
            "p3d": {
              "x": 4.2563,
              "y": 0.8754,
              "z": -2.2592
            }
          },
          {
            "elSymbol": "C",
            "p3d": {
              "x": 2.3334,
              "y": 1.79,
              "z": -1.1338
            }
          },
          {
            "elSymbol": "C",
            "p3d": {
              "x": 2.3422,
              "y": -0.5107,
              "z": -1.8125
            }
          },
          {
            "elSymbol": "C",
            "p3d": {
              "x": 3.612,
              "y": -0.3527,
              "z": -2.3321
            }
          },
          {
            "elSymbol": "C",
            "p3d": {
              "x": 3.6062,
              "y": 1.9513,
              "z": -1.6526
            }
          },
          {
            "elSymbol": "H",
            "p3d": {
              "x": 1.833,
              "y": 2.6461,
              "z": -0.6488
            }
          },
          {
            "elSymbol": "H",
            "p3d": {
              "x": 1.8361,
              "y": -1.4773,
              "z": -1.887
            }
          },
          {
            "elSymbol": "H",
            "p3d": {
              "x": 4.115,
              "y": -1.2043,
              "z": -2.8152
            }
          },
          {
            "elSymbol": "H",
            "p3d": {
              "x": 4.1097,
              "y": 2.9214,
              "z": -1.5842
            }
          },
          {
            "elSymbol": "H",
            "p3d": {
              "x": 5.2498,
              "y": 0.9926,
              "z": -2.665
            }
          }
        ],
        "bonds": [
          {
            "atomIds": [
              0,
              3
            ],
            "bo": "SINGLE"
          },
          {
            "atomIds": [
              3,
              4
            ],
            "bo": "DOUBLE"
          },
          {
            "atomIds": [
              1,
              4
            ],
            "bo": "SINGLE"
          },
          {
            "atomIds": [
              1,
              5
            ],
            "bo": "DOUBLE"
          },
          {
            "atomIds": [
              2,
              5
            ],
            "bo": "SINGLE"
          },
          {
            "atomIds": [
              0,
              2
            ],
            "bo": "DOUBLE"
          },
          {
            "atomIds": [
              4,
              8
            ],
            "bo": "SINGLE"
          },
          {
            "atomIds": [
              5,
              9
            ],
            "bo": "SINGLE"
          },
          {
            "atomIds": [
              1,
              10
            ],
            "bo": "SINGLE"
          },
          {
            "atomIds": [
              2,
              6
            ],
            "bo": "SINGLE"
          },
          {
            "atomIds": [
              3,
              7
            ],
            "bo": "SINGLE"
          }
        ]
      },
      "vertexId": 141306,
      "buildingBlockId": 35,
      "buildingBlockType": "FRAGMENT",
      "isRCV": false,
      "properties": {
        "ATTACHMENT_POINTS": "1#SubArS:1:SINGLE:0.2973%0.3873%-0.6389 "
      },
      "uniquefyingPropertyKeys": [],
      "allowedMutationTypes": [
        "DELETE",
        "EXTEND",
        "CHANGEBRANCH",
        "CHANGELINK",
        "ADDLINK",
        "DELETELINK",
        "DELETECHAIN"
      ],
      "vertexType": "MolecularFragment"
    },
    {
      "lstAPs": [
        {
          "id": 185245,
          "atomPositionNumber": 1,
          "atomPositionNumberInMol": 27,
          "apClass": {
            "rule": "SubRS",
            "subClass": 1,
            "bndTyp": "SINGLE"
          },
          "dirVec": {
            "x": 0.2985,
            "y": 0.384,
            "z": -0.6258
          }
        }
      ],
      "lstSymAPs": [],
      "mol": {
        "atoms": [
          {
            "elSymbol": "C",
            "p3d": {
              "x": -1.0244,
              "y": -0.2225,
              "z": 1.3991
            }
          },
          {
            "elSymbol": "C",
            "p3d": {
              "x": 0.3973,
              "y": -0.042,
              "z": 0.8195
            }
          },
          {
            "elSymbol": "H",
            "p3d": {
              "x": -1.5635,
              "y": -0.9908,
              "z": 0.8263
            }
          },
          {
            "elSymbol": "H",
            "p3d": {
              "x": -0.941,
              "y": -0.535,
              "z": 2.446
            }
          },
          {
            "elSymbol": "H",
            "p3d": {
              "x": -1.5586,
              "y": 0.7335,
              "z": 1.3382
            }
          },
          {
            "elSymbol": "H",
            "p3d": {
              "x": 0.9335,
              "y": 0.7221,
              "z": 1.4011
            }
          },
          {
            "elSymbol": "H",
            "p3d": {
              "x": 0.927,
              "y": -1.0102,
              "z": 0.9001
            }
          }
        ],
        "bonds": [
          {
            "atomIds": [
              0,
              1
            ],
            "bo": "SINGLE"
          },
          {
            "atomIds": [
              0,
              2
            ],
            "bo": "SINGLE"
          },
          {
            "atomIds": [
              0,
              3
            ],
            "bo": "SINGLE"
          },
          {
            "atomIds": [
              0,
              4
            ],
            "bo": "SINGLE"
          },
          {
            "atomIds": [
              1,
              5
            ],
            "bo": "SINGLE"
          },
          {
            "atomIds": [
              1,
              6
            ],
            "bo": "SINGLE"
          }
        ]
      },
      "vertexId": 139734,
      "buildingBlockId": 31,
      "buildingBlockType": "FRAGMENT",
      "isRCV": false,
      "properties": {
        "ATTACHMENT_POINTS": "2#SubRS:1:SINGLE:0.2985%0.3840%-0.6258 "
      },
      "uniquefyingPropertyKeys": [],
      "allowedMutationTypes": [
        "DELETE",
        "EXTEND",
        "CHANGEBRANCH",
        "CHANGELINK",
        "ADDLINK",
        "DELETELINK",
        "DELETECHAIN"
      ],
      "vertexType": "MolecularFragment"
    },
    {
      "lstAPs": [
        {
          "id": 185246,
          "atomPositionNumber": 0,
          "atomPositionNumberInMol": 33,
          "apClass": {
            "rule": "SubArS",
            "subClass": 1,
            "bndTyp": "SINGLE"
          },
          "dirVec": {
            "x": 0.2973,
            "y": 0.3873,
            "z": -0.6389
          }
        }
      ],
      "lstSymAPs": [],
      "mol": {
        "atoms": [
          {
            "elSymbol": "C",
            "p3d": {
              "x": 1.6995,
              "y": 0.5593,
              "z": -1.2083
            }
          },
          {
            "elSymbol": "C",
            "p3d": {
              "x": 4.2563,
              "y": 0.8754,
              "z": -2.2592
            }
          },
          {
            "elSymbol": "C",
            "p3d": {
              "x": 2.3334,
              "y": 1.79,
              "z": -1.1338
            }
          },
          {
            "elSymbol": "C",
            "p3d": {
              "x": 2.3422,
              "y": -0.5107,
              "z": -1.8125
            }
          },
          {
            "elSymbol": "C",
            "p3d": {
              "x": 3.612,
              "y": -0.3527,
              "z": -2.3321
            }
          },
          {
            "elSymbol": "C",
            "p3d": {
              "x": 3.6062,
              "y": 1.9513,
              "z": -1.6526
            }
          },
          {
            "elSymbol": "H",
            "p3d": {
              "x": 1.833,
              "y": 2.6461,
              "z": -0.6488
            }
          },
          {
            "elSymbol": "H",
            "p3d": {
              "x": 1.8361,
              "y": -1.4773,
              "z": -1.887
            }
          },
          {
            "elSymbol": "H",
            "p3d": {
              "x": 4.115,
              "y": -1.2043,
              "z": -2.8152
            }
          },
          {
            "elSymbol": "H",
            "p3d": {
              "x": 4.1097,
              "y": 2.9214,
              "z": -1.5842
            }
          },
          {
            "elSymbol": "H",
            "p3d": {
              "x": 5.2498,
              "y": 0.9926,
              "z": -2.665
            }
          }
        ],
        "bonds": [
          {
            "atomIds": [
              0,
              3
            ],
            "bo": "SINGLE"
          },
          {
            "atomIds": [
              3,
              4
            ],
            "bo": "DOUBLE"
          },
          {
            "atomIds": [
              1,
              4
            ],
            "bo": "SINGLE"
          },
          {
            "atomIds": [
              1,
              5
            ],
            "bo": "DOUBLE"
          },
          {
            "atomIds": [
              2,
              5
            ],
            "bo": "SINGLE"
          },
          {
            "atomIds": [
              0,
              2
            ],
            "bo": "DOUBLE"
          },
          {
            "atomIds": [
              4,
              8
            ],
            "bo": "SINGLE"
          },
          {
            "atomIds": [
              5,
              9
            ],
            "bo": "SINGLE"
          },
          {
            "atomIds": [
              1,
              10
            ],
            "bo": "SINGLE"
          },
          {
            "atomIds": [
              2,
              6
            ],
            "bo": "SINGLE"
          },
          {
            "atomIds": [
              3,
              7
            ],
            "bo": "SINGLE"
          }
        ]
      },
      "vertexId": 139745,
      "buildingBlockId": 35,
      "buildingBlockType": "FRAGMENT",
      "isRCV": false,
      "properties": {
        "ATTACHMENT_POINTS": "1#SubArS:1:SINGLE:0.2973%0.3873%-0.6389 "
      },
      "uniquefyingPropertyKeys": [],
      "allowedMutationTypes": [
        "DELETE",
        "EXTEND",
        "CHANGEBRANCH",
        "CHANGELINK",
        "ADDLINK",
        "DELETELINK",
        "DELETECHAIN"
      ],
      "vertexType": "MolecularFragment"
    },
    {
      "lstAPs": [
        {
          "id": 185247,
          "atomPositionNumber": 1,
          "atomPositionNumberInMol": 45,
          "apClass": {
            "rule": "SubRM",
            "subClass": 1,
            "bndTyp": "SINGLE"
          },
          "dirVec": {
            "x": 0.2868,
            "y": 0.385,
            "z": -0.643
          }
        }
      ],
      "lstSymAPs": [],
      "mol": {
        "atoms": [
          {
            "elSymbol": "C",
            "p3d": {
              "x": 1.141,
              "y": 1.0262,
              "z": 1.6347
            }
          },
          {
            "elSymbol": "C",
            "p3d": {
              "x": 0.3967,
              "y": -0.0479,
              "z": 0.8227
            }
          },
          {
            "elSymbol": "C",
            "p3d": {
              "x": 1.1459,
              "y": -1.371,
              "z": 0.9201
            }
          },
          {
            "elSymbol": "H",
            "p3d": {
              "x": 2.1461,
              "y": -1.2583,
              "z": 0.4976
            }
          },
          {
            "elSymbol": "H",
            "p3d": {
              "x": 0.6013,
              "y": -2.1408,
              "z": 0.3461
            }
          },
          {
            "elSymbol": "H",
            "p3d": {
              "x": 1.2113,
              "y": -1.6946,
              "z": 1.9559
            }
          },
          {
            "elSymbol": "H",
            "p3d": {
              "x": 2.1541,
              "y": 1.1435,
              "z": 1.2119
            }
          },
          {
            "elSymbol": "H",
            "p3d": {
              "x": 0.6143,
              "y": 1.976,
              "z": 1.5626
            }
          },
          {
            "elSymbol": "H",
            "p3d": {
              "x": 1.2058,
              "y": 0.7088,
              "z": 2.6868
            }
          },
          {
            "elSymbol": "H",
            "p3d": {
              "x": -0.6215,
              "y": -0.1789,
              "z": 1.2377
            }
          }
        ],
        "bonds": [
          {
            "atomIds": [
              0,
              1
            ],
            "bo": "SINGLE"
          },
          {
            "atomIds": [
              1,
              2
            ],
            "bo": "SINGLE"
          },
          {
            "atomIds": [
              2,
              3
            ],
            "bo": "SINGLE"
          },
          {
            "atomIds": [
              2,
              4
            ],
            "bo": "SINGLE"
          },
          {
            "atomIds": [
              2,
              5
            ],
            "bo": "SINGLE"
          },
          {
            "atomIds": [
              0,
              6
            ],
            "bo": "SINGLE"
          },
          {
            "atomIds": [
              0,
              7
            ],
            "bo": "SINGLE"
          },
          {
            "atomIds": [
              0,
              8
            ],
            "bo": "SINGLE"
          },
          {
            "atomIds": [
              1,
              9
            ],
            "bo": "SINGLE"
          }
        ]
      },
      "vertexId": 139751,
      "buildingBlockId": 32,
      "buildingBlockType": "FRAGMENT",
      "isRCV": false,
      "properties": {
        "ATTACHMENT_POINTS": "2#SubRM:1:SINGLE:0.2868%0.3850%-0.6430 "
      },
      "uniquefyingPropertyKeys": [],
      "allowedMutationTypes": [
        "DELETE",
        "EXTEND",
        "CHANGEBRANCH",
        "CHANGELINK",
        "ADDLINK",
        "DELETELINK",
        "DELETECHAIN"
      ],
      "vertexType": "MolecularFragment"
    },
    {
      "lstAPs": [
        {
          "id": 185248,
          "atomPositionNumber": 1,
          "atomPositionNumberInMol": 55,
          "apClass": {
            "rule": "SubRM",
            "subClass": 1,
            "bndTyp": "SINGLE"
          },
          "dirVec": {
            "x": 0.2868,
            "y": 0.385,
            "z": -0.643
          }
        }
      ],
      "lstSymAPs": [],
      "mol": {
        "atoms": [
          {
            "elSymbol": "C",
            "p3d": {
              "x": 1.141,
              "y": 1.0262,
              "z": 1.6347
            }
          },
          {
            "elSymbol": "C",
            "p3d": {
              "x": 0.3967,
              "y": -0.0479,
              "z": 0.8227
            }
          },
          {
            "elSymbol": "C",
            "p3d": {
              "x": 1.1459,
              "y": -1.371,
              "z": 0.9201
            }
          },
          {
            "elSymbol": "H",
            "p3d": {
              "x": 2.1461,
              "y": -1.2583,
              "z": 0.4976
            }
          },
          {
            "elSymbol": "H",
            "p3d": {
              "x": 0.6013,
              "y": -2.1408,
              "z": 0.3461
            }
          },
          {
            "elSymbol": "H",
            "p3d": {
              "x": 1.2113,
              "y": -1.6946,
              "z": 1.9559
            }
          },
          {
            "elSymbol": "H",
            "p3d": {
              "x": 2.1541,
              "y": 1.1435,
              "z": 1.2119
            }
          },
          {
            "elSymbol": "H",
            "p3d": {
              "x": 0.6143,
              "y": 1.976,
              "z": 1.5626
            }
          },
          {
            "elSymbol": "H",
            "p3d": {
              "x": 1.2058,
              "y": 0.7088,
              "z": 2.6868
            }
          },
          {
            "elSymbol": "H",
            "p3d": {
              "x": -0.6215,
              "y": -0.1789,
              "z": 1.2377
            }
          }
        ],
        "bonds": [
          {
            "atomIds": [
              0,
              1
            ],
            "bo": "SINGLE"
          },
          {
            "atomIds": [
              1,
              2
            ],
            "bo": "SINGLE"
          },
          {
            "atomIds": [
              2,
              3
            ],
            "bo": "SINGLE"
          },
          {
            "atomIds": [
              2,
              4
            ],
            "bo": "SINGLE"
          },
          {
            "atomIds": [
              2,
              5
            ],
            "bo": "SINGLE"
          },
          {
            "atomIds": [
              0,
              6
            ],
            "bo": "SINGLE"
          },
          {
            "atomIds": [
              0,
              7
            ],
            "bo": "SINGLE"
          },
          {
            "atomIds": [
              0,
              8
            ],
            "bo": "SINGLE"
          },
          {
            "atomIds": [
              1,
              9
            ],
            "bo": "SINGLE"
          }
        ]
      },
      "vertexId": 141307,
      "buildingBlockId": 32,
      "buildingBlockType": "FRAGMENT",
      "isRCV": false,
      "properties": {
        "ATTACHMENT_POINTS": "2#SubRM:1:SINGLE:0.2868%0.3850%-0.6430 "
      },
      "uniquefyingPropertyKeys": [],
      "allowedMutationTypes": [
        "DELETE",
        "EXTEND",
        "CHANGEBRANCH",
        "CHANGELINK",
        "ADDLINK",
        "DELETELINK",
        "DELETECHAIN"
      ],
      "vertexType": "MolecularFragment"
    }
  ],
  "gEdges": [
    {
      "srcAPID": 185185,
      "trgAPID": 185188,
      "bondType": "SINGLE"
    },
    {
      "srcAPID": 185187,
      "trgAPID": 185190,
      "bondType": "SINGLE"
    },
    {
      "srcAPID": 185186,
      "trgAPID": 185195,
      "bondType": "SINGLE"
    },
    {
      "srcAPID": 185194,
      "trgAPID": 185244,
      "bondType": "SINGLE"
    },
    {
      "srcAPID": 185189,
      "trgAPID": 185245,
      "bondType": "SINGLE"
    },
    {
      "srcAPID": 185191,
      "trgAPID": 185246,
      "bondType": "SINGLE"
    },
    {
      "srcAPID": 185192,
      "trgAPID": 185247,
      "bondType": "SINGLE"
    },
    {
      "srcAPID": 185193,
      "trgAPID": 185248,
      "bondType": "SINGLE"
    }
  ],
  "gRings": [],
  "symVertices": [
    {
      "symIds": [
        141306,
        139745
      ]
    },
    {
      "symIds": [
        139751,
        141307
      ]
    }
  ]
}

> <SMILES>
[Pt](C#O)(SC([H])([H])[H])([P]1(C(=C(C(=C1C=2C(=C(C(=C(C2[H])[H])[H])[H])[H])C(C([H])([H])[H])(C([H])([H])[H])[H])C(C([H])([H])[H])(C([H])([H])[H])[H])C=3C(=C(C(=C(C3[H])[H])[H])[H])[H])C(C([H])([H])[H])([H])[H])SC([H])([H])[H]

$$$$
