M00000032
  CDK     05032207483D

 44 46  0  0  0  0  0  0  0  0999 V2000
   -2.1947    0.3986    0.7320 Pt  0  0  0  0  0  0  0  0  0  0  0  0
   -4.1670    0.3640    0.7358 C   0  0  0  0  0  0  0  0  0  0  0  0
   -5.3062    0.3412    0.7404 O   0  0  0  0  0  0  0  0  0  0  0  0
    0.0756    0.4350    0.7723 P   0  0  0  0  0  0  0  0  0  0  0  0
    0.7964   -0.6819   -0.3112 N   0  0  0  0  0  0  0  0  0  0  0  0
   -0.0085   -1.4249   -1.3194 C   0  0  0  0  0  0  0  0  0  0  0  0
   -1.0944   -1.1703   -1.2457 H   0  0  0  0  0  0  0  0  0  0  0  0
    0.0657   -2.5176   -1.0952 H   0  0  0  0  0  0  0  0  0  0  0  0
    0.5206   -1.1329   -2.7348 C   0  0  0  0  0  0  0  0  0  0  0  0
   -0.0275   -1.7582   -3.4659 H   0  0  0  0  0  0  0  0  0  0  0  0
    0.3088   -0.0828   -3.0108 H   0  0  0  0  0  0  0  0  0  0  0  0
    2.0281   -1.4050   -2.8330 C   0  0  0  0  0  0  0  0  0  0  0  0
    2.3962   -1.1294   -3.8392 H   0  0  0  0  0  0  0  0  0  0  0  0
    2.2196   -2.4909   -2.7248 H   0  0  0  0  0  0  0  0  0  0  0  0
    2.8067   -0.6294   -1.7607 C   0  0  0  0  0  0  0  0  0  0  0  0
    3.8807   -0.8892   -1.8067 H   0  0  0  0  0  0  0  0  0  0  0  0
    2.7417    0.4563   -1.9631 H   0  0  0  0  0  0  0  0  0  0  0  0
    2.2570   -0.9387   -0.3542 C   0  0  0  0  0  0  0  0  0  0  0  0
    2.4304   -2.0165   -0.1142 H   0  0  0  0  0  0  0  0  0  0  0  0
    2.8045   -0.3481    0.4084 H   0  0  0  0  0  0  0  0  0  0  0  0
   -2.4015    2.4302    0.9592 O   0  0  0  0  0  0  0  0  0  0  0  0
   -2.0858    4.4672    0.1838 O   0  0  0  0  0  0  0  0  0  0  0  0
   -1.9381    3.2772    0.0273 C   0  0  0  0  0  0  0  0  0  0  0  0
   -1.2394    2.6341   -1.1596 C   0  0  0  0  0  0  0  0  0  0  0  0
    0.2827    2.6276   -0.9579 C   0  0  0  0  0  0  0  0  0  0  0  0
    0.7468    2.1575    0.4202 C   0  0  0  0  0  0  0  0  0  0  0  0
   -1.6482    1.6215   -1.3734 H   0  0  0  0  0  0  0  0  0  0  0  0
   -1.4828    3.2292   -2.0685 H   0  0  0  0  0  0  0  0  0  0  0  0
    0.7539    2.0253   -1.7648 H   0  0  0  0  0  0  0  0  0  0  0  0
    0.6609    3.6653   -1.1106 H   0  0  0  0  0  0  0  0  0  0  0  0
    1.8522    2.1692    0.4771 H   0  0  0  0  0  0  0  0  0  0  0  0
    0.3947    2.8614    1.2089 H   0  0  0  0  0  0  0  0  0  0  0  0
   -2.2687   -1.6500    0.5590 O   0  0  0  0  0  0  0  0  0  0  0  0
   -1.4802   -3.5649    1.3102 O   0  0  0  0  0  0  0  0  0  0  0  0
   -1.6808   -2.3896    1.5147 C   0  0  0  0  0  0  0  0  0  0  0  0
   -1.3288   -1.6603    2.8031 C   0  0  0  0  0  0  0  0  0  0  0  0
    0.1809   -1.3965    2.9071 C   0  0  0  0  0  0  0  0  0  0  0  0
    0.6149    0.0191    2.5292 C   0  0  0  0  0  0  0  0  0  0  0  0
   -1.9312   -0.7333    2.9339 H   0  0  0  0  0  0  0  0  0  0  0  0
   -1.6438   -2.3158    3.6469 H   0  0  0  0  0  0  0  0  0  0  0  0
    0.4967   -1.5816    3.9585 H   0  0  0  0  0  0  0  0  0  0  0  0
    0.7370   -2.1591    2.3154 H   0  0  0  0  0  0  0  0  0  0  0  0
    0.1641    0.7606    3.2266 H   0  0  0  0  0  0  0  0  0  0  0  0
    1.7108    0.1265    2.6437 H   0  0  0  0  0  0  0  0  0  0  0  0
  2  3  3  0  0  0  0
  1  2  1  0  0  0  0
  1  4  1  0  0  0  0
  6  5  1  0  0  0  0
  7  6  1  0  0  0  0
  8  6  1  0  0  0  0
  9  6  1  0  0  0  0
 10  9  1  0  0  0  0
 11  9  1  0  0  0  0
 12  9  1  0  0  0  0
 13 12  1  0  0  0  0
 14 12  1  0  0  0  0
 15 12  1  0  0  0  0
 16 15  1  0  0  0  0
 17 15  1  0  0  0  0
 18  5  1  0  0  0  0
 19 18  1  0  0  0  0
 20 18  1  0  0  0  0
 15 18  1  0  0  0  0
  4  5  1  0  0  0  0
 22 23  2  0  0  0  0
 23 21  1  0  0  0  0
  1 21  1  0  0  0  0
 24 25  1  0  0  0  0
 25 26  1  0  0  0  0
 24 27  1  0  0  0  0
 24 28  1  0  0  0  0
 25 29  1  0  0  0  0
 25 30  1  0  0  0  0
 26 31  1  0  0  0  0
 26 32  1  0  0  0  0
 23 24  1  0  0  0  0
 34 35  2  0  0  0  0
 35 33  1  0  0  0  0
  1 33  1  0  0  0  0
 36 37  1  0  0  0  0
 37 38  1  0  0  0  0
 36 39  1  0  0  0  0
 36 40  1  0  0  0  0
 37 41  1  0  0  0  0
 37 42  1  0  0  0  0
 38 43  1  0  0  0  0
 38 44  1  0  0  0  0
 35 36  1  0  0  0  0
  4 38  1  0  0  0  0
  4 26  1  0  0  0  0
M  END
> <PM6_ENERGY>
-902.686

> <UID>
GHAVGYKHUGCXJV-YZMBBUJXNA-L

> <FITNESS>
1.13944

> <GCODE>
9956

> <GraphENC>
9956 138858_1_0,138859_4_1,138860_78_1,138861_78_1,138862_76_1,138863_76_1,138864_65_1,138865_65_1,138866_79_1,138867_79_1,379377_8_1, 138858_2_138859_3_SINGLE_scaff:0_MMonoAminoPhosphine:1,138859_1_138860_0_SINGLE_LMonoAminoPhosphineSubR:0_ATplus:0,138859_2_138861_0_SINGLE_LMonoAminoPhosphineSubR:0_ATplus:0,138858_0_138862_0_SINGLE_Xlig:0_Xlig:1,138858_1_138863_0_SINGLE_Xlig:0_Xlig:1,138862_1_138864_0_SINGLE_bridge:1_bridge:0,138863_1_138865_0_SINGLE_bridge:1_bridge:0,138864_1_138866_0_SINGLE_bridge:0_ATminus:0,138865_1_138867_0_SINGLE_bridge:0_ATminus:0,138859_0_379377_0_SINGLE_LMonoAminoPhosphineN:0_LAminoPhosphineCycloN:1, DENOPTIMRing [vertices=[138861_78_1, 138859_4_1, 138858_1_0, 138863_76_1, 138865_65_1, 138867_79_1]] DENOPTIMRing [vertices=[138860_78_1, 138859_4_1, 138858_1_0, 138862_76_1, 138864_65_1, 138866_79_1]] SymmetricSet [symIds=[138860, 138861]] SymmetricSet [symIds=[138862, 138863]] SymmetricSet [symIds=[138864, 138865]] SymmetricSet [symIds=[138866, 138867]] 

> <GraphJson>
{
  "graphId": 9956,
  "gVertices": [
    {
      "lstAPs": [
        {
          "id": 247768,
          "atomPositionNumber": 0,
          "atomPositionNumberInMol": 0,
          "apClass": {
            "rule": "Xlig",
            "subClass": 0,
            "bndTyp": "SINGLE"
          },
          "dirVec": {
            "x": -2.3339,
            "y": -0.0087,
            "z": 0.8172
          }
        },
        {
          "id": 247769,
          "atomPositionNumber": 0,
          "atomPositionNumberInMol": 0,
          "apClass": {
            "rule": "Xlig",
            "subClass": 0,
            "bndTyp": "SINGLE"
          },
          "dirVec": {
            "x": 2.336,
            "y": -5.0E-4,
            "z": 0.829
          }
        },
        {
          "id": 247770,
          "atomPositionNumber": 0,
          "atomPositionNumberInMol": 0,
          "apClass": {
            "rule": "scaff",
            "subClass": 0,
            "bndTyp": "SINGLE"
          },
          "dirVec": {
            "x": -0.0095,
            "y": 0.0046,
            "z": -1.7113
          }
        }
      ],
      "lstSymAPs": [
        {
          "symIds": [
            0,
            1
          ]
        }
      ],
      "mol": {
        "atoms": [
          {
            "elSymbol": "Pt",
            "p3d": {
              "x": -0.0098,
              "y": 0.0049,
              "z": 0.6289
            }
          },
          {
            "elSymbol": "C",
            "p3d": {
              "x": -6.0E-4,
              "y": 0.0016,
              "z": 2.5609
            }
          },
          {
            "elSymbol": "O",
            "p3d": {
              "x": 0.0025,
              "y": -0.0041,
              "z": 3.6974
            }
          },
          {
            "elSymbol": "Du",
            "p3d": {
              "x": -0.007,
              "y": 1.0013,
              "z": 0.6372
            }
          },
          {
            "elSymbol": "Du",
            "p3d": {
              "x": -0.0014,
              "y": 0.9902,
              "z": 2.5698
            }
          }
        ],
        "bonds": [
          {
            "atomIds": [
              1,
              2
            ],
            "bo": "TRIPLE"
          },
          {
            "atomIds": [
              0,
              1
            ],
            "bo": "SINGLE"
          },
          {
            "atomIds": [
              3,
              0
            ],
            "bo": "SINGLE"
          },
          {
            "atomIds": [
              4,
              1
            ],
            "bo": "SINGLE"
          }
        ]
      },
      "vertexId": 138858,
      "buildingBlockId": 0,
      "buildingBlockType": "SCAFFOLD",
      "isRCV": false,
      "properties": {
        "ATTACHMENT_POINTS": "1#Xlig:0:SINGLE:-2.3339%-0.0087%0.8172,Xlig:0:SINGLE:2.3360%-0.0005%0.8290,scaff:0:SINGLE:-0.0095%0.0046%-1.7113 "
      },
      "uniquefyingPropertyKeys": [],
      "allowedMutationTypes": [
        "DELETE",
        "EXTEND",
        "CHANGEBRANCH",
        "CHANGELINK",
        "ADDLINK",
        "DELETELINK",
        "DELETECHAIN"
      ],
      "vertexType": "MolecularFragment"
    },
    {
      "lstAPs": [
        {
          "id": 247771,
          "atomPositionNumber": 0,
          "atomPositionNumberInMol": 5,
          "apClass": {
            "rule": "LMonoAminoPhosphineN",
            "subClass": 0,
            "bndTyp": "SINGLE"
          },
          "dirVec": {
            "x": 1.5576360714278132,
            "y": 0.04489007948791429,
            "z": -2.241202695388179
          }
        },
        {
          "id": 247772,
          "atomPositionNumber": 0,
          "atomPositionNumberInMol": 5,
          "apClass": {
            "rule": "LMonoAminoPhosphineSubR",
            "subClass": 0,
            "bndTyp": "SINGLE"
          },
          "dirVec": {
            "x": -0.7810356757784612,
            "y": -1.5410049186499182,
            "z": -2.385973734275668
          }
        },
        {
          "id": 247773,
          "atomPositionNumber": 0,
          "atomPositionNumberInMol": 5,
          "apClass": {
            "rule": "LMonoAminoPhosphineSubR",
            "subClass": 0,
            "bndTyp": "SINGLE"
          },
          "dirVec": {
            "x": -0.8999787291693976,
            "y": 1.4011327409517724,
            "z": -2.44926553472034
          }
        },
        {
          "id": 247774,
          "atomPositionNumber": 0,
          "atomPositionNumberInMol": 5,
          "apClass": {
            "rule": "MMonoAminoPhosphine",
            "subClass": 1,
            "bndTyp": "SINGLE"
          },
          "dirVec": {
            "x": -0.009798817884168738,
            "y": 0.004898817884168566,
            "z": 0.6196787084387736
          }
        }
      ],
      "lstSymAPs": [
        {
          "symIds": [
            1,
            2
          ]
        }
      ],
      "mol": {
        "atoms": [
          {
            "elSymbol": "P",
            "p3d": {
              "x": -0.009501182115831262,
              "y": 0.0046011821158314335,
              "z": -1.702078708438774
            }
          }
        ],
        "bonds": []
      },
      "vertexId": 138859,
      "buildingBlockId": 3,
      "buildingBlockType": "FRAGMENT",
      "isRCV": false,
      "properties": {
        "ATTACHMENT_POINTS": "1#LMonoAminoPhosphineN:0:SINGLE:1.5576%0.0449%-2.2412,LMonoAminoPhosphineSubR:0:SINGLE:-0.7810%-1.5410%-2.3860,LMonoAminoPhosphineSubR:0:SINGLE:-0.9000%1.4011%-2.4493,MMonoAminoPhosphine:1:SINGLE:-0.0098%0.0049%0.6197 "
      },
      "uniquefyingPropertyKeys": [],
      "allowedMutationTypes": [
        "DELETE",
        "EXTEND",
        "CHANGEBRANCH",
        "CHANGELINK",
        "ADDLINK",
        "DELETELINK",
        "DELETECHAIN"
      ],
      "vertexType": "MolecularFragment"
    },
    {
      "lstAPs": [
        {
          "id": 247775,
          "atomPositionNumber": 0,
          "atomPositionNumberInMol": 6,
          "apClass": {
            "rule": "ATplus",
            "subClass": 0,
            "bndTyp": "ANY"
          },
          "dirVec": {
            "x": -0.7810356757784612,
            "y": -1.5410049186499182,
            "z": -2.385973734275668
          }
        }
      ],
      "lstSymAPs": [],
      "mol": {
        "atoms": [
          {
            "elSymbol": "ATP",
            "p3d": {
              "x": -0.7897530259255463,
              "y": -1.5584682850716631,
              "z": -2.393700870849651
            }
          }
        ],
        "bonds": []
      },
      "vertexId": 138860,
      "buildingBlockId": 77,
      "buildingBlockType": "FRAGMENT",
      "isRCV": true,
      "properties": {
        "ATTACHMENT_POINTS": "1#ATplus:0:ANY:-0.7810%-1.5410%-2.3860 "
      },
      "uniquefyingPropertyKeys": [],
      "allowedMutationTypes": [
        "DELETE",
        "EXTEND",
        "CHANGEBRANCH",
        "CHANGELINK",
        "ADDLINK",
        "DELETELINK",
        "DELETECHAIN"
      ],
      "vertexType": "MolecularFragment"
    },
    {
      "lstAPs": [
        {
          "id": 247776,
          "atomPositionNumber": 0,
          "atomPositionNumberInMol": 7,
          "apClass": {
            "rule": "ATplus",
            "subClass": 0,
            "bndTyp": "ANY"
          },
          "dirVec": {
            "x": -0.8999787291693976,
            "y": 1.4011327409517724,
            "z": -2.44926553472034
          }
        }
      ],
      "lstSymAPs": [],
      "mol": {
        "atoms": [
          {
            "elSymbol": "ATP",
            "p3d": {
              "x": -0.9102665054814141,
              "y": 1.4172670099600302,
              "z": -2.457897858979952
            }
          }
        ],
        "bonds": []
      },
      "vertexId": 138861,
      "buildingBlockId": 77,
      "buildingBlockType": "FRAGMENT",
      "isRCV": true,
      "properties": {
        "ATTACHMENT_POINTS": "1#ATplus:0:ANY:-0.9000%1.4011%-2.4493 "
      },
      "uniquefyingPropertyKeys": [],
      "allowedMutationTypes": [
        "DELETE",
        "EXTEND",
        "CHANGEBRANCH",
        "CHANGELINK",
        "ADDLINK",
        "DELETELINK",
        "DELETECHAIN"
      ],
      "vertexType": "MolecularFragment"
    },
    {
      "lstAPs": [
        {
          "id": 247777,
          "atomPositionNumber": 0,
          "atomPositionNumberInMol": 24,
          "apClass": {
            "rule": "Xlig",
            "subClass": 1,
            "bndTyp": "SINGLE"
          },
          "dirVec": {
            "x": 2.9612,
            "y": 0.482,
            "z": 3.1597
          }
        },
        {
          "id": 247778,
          "atomPositionNumber": 2,
          "atomPositionNumberInMol": 26,
          "apClass": {
            "rule": "bridge",
            "subClass": 1,
            "bndTyp": "SINGLE"
          },
          "dirVec": {
            "x": 0.31479999999999997,
            "y": 0.7222,
            "z": 2.0817
          }
        }
      ],
      "lstSymAPs": [],
      "mol": {
        "atoms": [
          {
            "elSymbol": "O",
            "p3d": {
              "x": 2.5349,
              "y": 1.3185,
              "z": 1.3621
            }
          },
          {
            "elSymbol": "O",
            "p3d": {
              "x": 0.8537,
              "y": 1.7439,
              "z": 0.0154
            }
          },
          {
            "elSymbol": "C",
            "p3d": {
              "x": 1.2704,
              "y": 1.2787,
              "z": 1.0674
            }
          }
        ],
        "bonds": [
          {
            "atomIds": [
              1,
              2
            ],
            "bo": "DOUBLE"
          },
          {
            "atomIds": [
              2,
              0
            ],
            "bo": "SINGLE"
          }
        ]
      },
      "vertexId": 138862,
      "buildingBlockId": 75,
      "buildingBlockType": "FRAGMENT",
      "isRCV": false,
      "properties": {
        "ATTACHMENT_POINTS": "1#Xlig:1:SINGLE:2.9612%0.4820%3.1597 3#bridge:1:SINGLE:0.3148%0.7222%2.0817 "
      },
      "uniquefyingPropertyKeys": [],
      "allowedMutationTypes": [
        "DELETE",
        "EXTEND",
        "CHANGEBRANCH",
        "CHANGELINK",
        "ADDLINK",
        "DELETELINK",
        "DELETECHAIN"
      ],
      "vertexType": "MolecularFragment"
    },
    {
      "lstAPs": [
        {
          "id": 247779,
          "atomPositionNumber": 0,
          "atomPositionNumberInMol": 37,
          "apClass": {
            "rule": "Xlig",
            "subClass": 1,
            "bndTyp": "SINGLE"
          },
          "dirVec": {
            "x": 2.9612,
            "y": 0.482,
            "z": 3.1597
          }
        },
        {
          "id": 247780,
          "atomPositionNumber": 2,
          "atomPositionNumberInMol": 39,
          "apClass": {
            "rule": "bridge",
            "subClass": 1,
            "bndTyp": "SINGLE"
          },
          "dirVec": {
            "x": 0.31479999999999997,
            "y": 0.7222,
            "z": 2.0817
          }
        }
      ],
      "lstSymAPs": [],
      "mol": {
        "atoms": [
          {
            "elSymbol": "O",
            "p3d": {
              "x": 2.5349,
              "y": 1.3185,
              "z": 1.3621
            }
          },
          {
            "elSymbol": "O",
            "p3d": {
              "x": 0.8537,
              "y": 1.7439,
              "z": 0.0154
            }
          },
          {
            "elSymbol": "C",
            "p3d": {
              "x": 1.2704,
              "y": 1.2787,
              "z": 1.0674
            }
          }
        ],
        "bonds": [
          {
            "atomIds": [
              1,
              2
            ],
            "bo": "DOUBLE"
          },
          {
            "atomIds": [
              2,
              0
            ],
            "bo": "SINGLE"
          }
        ]
      },
      "vertexId": 138863,
      "buildingBlockId": 75,
      "buildingBlockType": "FRAGMENT",
      "isRCV": false,
      "properties": {
        "ATTACHMENT_POINTS": "1#Xlig:1:SINGLE:2.9612%0.4820%3.1597 3#bridge:1:SINGLE:0.3148%0.7222%2.0817 "
      },
      "uniquefyingPropertyKeys": [],
      "allowedMutationTypes": [
        "DELETE",
        "EXTEND",
        "CHANGEBRANCH",
        "CHANGELINK",
        "ADDLINK",
        "DELETELINK",
        "DELETECHAIN"
      ],
      "vertexType": "MolecularFragment"
    },
    {
      "lstAPs": [
        {
          "id": 247781,
          "atomPositionNumber": 0,
          "atomPositionNumberInMol": 27,
          "apClass": {
            "rule": "bridge",
            "subClass": 0,
            "bndTyp": "SINGLE"
          },
          "dirVec": {
            "x": -1.2321,
            "y": -0.7501,
            "z": -0.255
          }
        },
        {
          "id": 247782,
          "atomPositionNumber": 2,
          "atomPositionNumberInMol": 29,
          "apClass": {
            "rule": "bridge",
            "subClass": 0,
            "bndTyp": "SINGLE"
          },
          "dirVec": {
            "x": 1.2657,
            "y": -0.692,
            "z": -0.255
          }
        }
      ],
      "lstSymAPs": [
        {
          "symIds": [
            0,
            1
          ]
        }
      ],
      "mol": {
        "atoms": [
          {
            "elSymbol": "C",
            "p3d": {
              "x": -1.2657,
              "y": 0.692,
              "z": 0.255
            }
          },
          {
            "elSymbol": "C",
            "p3d": {
              "x": -0.0335,
              "y": 1.4421,
              "z": -0.255
            }
          },
          {
            "elSymbol": "C",
            "p3d": {
              "x": 1.2321,
              "y": 0.7501,
              "z": 0.255
            }
          },
          {
            "elSymbol": "H",
            "p3d": {
              "x": -2.1673,
              "y": 1.1851,
              "z": -0.1083
            }
          },
          {
            "elSymbol": "H",
            "p3d": {
              "x": -1.2657,
              "y": 0.692,
              "z": 1.345
            }
          },
          {
            "elSymbol": "H",
            "p3d": {
              "x": -0.0335,
              "y": 1.4421,
              "z": -1.345
            }
          },
          {
            "elSymbol": "H",
            "p3d": {
              "x": -0.0574,
              "y": 2.4695,
              "z": 0.1083
            }
          },
          {
            "elSymbol": "H",
            "p3d": {
              "x": 2.11,
              "y": 1.2844,
              "z": -0.1083
            }
          },
          {
            "elSymbol": "H",
            "p3d": {
              "x": 1.2321,
              "y": 0.7501,
              "z": 1.345
            }
          }
        ],
        "bonds": [
          {
            "atomIds": [
              0,
              1
            ],
            "bo": "SINGLE"
          },
          {
            "atomIds": [
              1,
              2
            ],
            "bo": "SINGLE"
          },
          {
            "atomIds": [
              0,
              3
            ],
            "bo": "SINGLE"
          },
          {
            "atomIds": [
              0,
              4
            ],
            "bo": "SINGLE"
          },
          {
            "atomIds": [
              1,
              5
            ],
            "bo": "SINGLE"
          },
          {
            "atomIds": [
              1,
              6
            ],
            "bo": "SINGLE"
          },
          {
            "atomIds": [
              2,
              7
            ],
            "bo": "SINGLE"
          },
          {
            "atomIds": [
              2,
              8
            ],
            "bo": "SINGLE"
          }
        ]
      },
      "vertexId": 138864,
      "buildingBlockId": 64,
      "buildingBlockType": "FRAGMENT",
      "isRCV": false,
      "properties": {
        "ATTACHMENT_POINTS": "1#bridge:0:SINGLE:-1.2321%-0.7501%-0.2550 3#bridge:0:SINGLE:1.2657%-0.6920%-0.2550 "
      },
      "uniquefyingPropertyKeys": [],
      "allowedMutationTypes": [
        "DELETE",
        "EXTEND",
        "CHANGEBRANCH",
        "CHANGELINK",
        "ADDLINK",
        "DELETELINK",
        "DELETECHAIN"
      ],
      "vertexType": "MolecularFragment"
    },
    {
      "lstAPs": [
        {
          "id": 247783,
          "atomPositionNumber": 0,
          "atomPositionNumberInMol": 40,
          "apClass": {
            "rule": "bridge",
            "subClass": 0,
            "bndTyp": "SINGLE"
          },
          "dirVec": {
            "x": -1.2321,
            "y": -0.7501,
            "z": -0.255
          }
        },
        {
          "id": 247784,
          "atomPositionNumber": 2,
          "atomPositionNumberInMol": 42,
          "apClass": {
            "rule": "bridge",
            "subClass": 0,
            "bndTyp": "SINGLE"
          },
          "dirVec": {
            "x": 1.2657,
            "y": -0.692,
            "z": -0.255
          }
        }
      ],
      "lstSymAPs": [
        {
          "symIds": [
            0,
            1
          ]
        }
      ],
      "mol": {
        "atoms": [
          {
            "elSymbol": "C",
            "p3d": {
              "x": -1.2657,
              "y": 0.692,
              "z": 0.255
            }
          },
          {
            "elSymbol": "C",
            "p3d": {
              "x": -0.0335,
              "y": 1.4421,
              "z": -0.255
            }
          },
          {
            "elSymbol": "C",
            "p3d": {
              "x": 1.2321,
              "y": 0.7501,
              "z": 0.255
            }
          },
          {
            "elSymbol": "H",
            "p3d": {
              "x": -2.1673,
              "y": 1.1851,
              "z": -0.1083
            }
          },
          {
            "elSymbol": "H",
            "p3d": {
              "x": -1.2657,
              "y": 0.692,
              "z": 1.345
            }
          },
          {
            "elSymbol": "H",
            "p3d": {
              "x": -0.0335,
              "y": 1.4421,
              "z": -1.345
            }
          },
          {
            "elSymbol": "H",
            "p3d": {
              "x": -0.0574,
              "y": 2.4695,
              "z": 0.1083
            }
          },
          {
            "elSymbol": "H",
            "p3d": {
              "x": 2.11,
              "y": 1.2844,
              "z": -0.1083
            }
          },
          {
            "elSymbol": "H",
            "p3d": {
              "x": 1.2321,
              "y": 0.7501,
              "z": 1.345
            }
          }
        ],
        "bonds": [
          {
            "atomIds": [
              0,
              1
            ],
            "bo": "SINGLE"
          },
          {
            "atomIds": [
              1,
              2
            ],
            "bo": "SINGLE"
          },
          {
            "atomIds": [
              0,
              3
            ],
            "bo": "SINGLE"
          },
          {
            "atomIds": [
              0,
              4
            ],
            "bo": "SINGLE"
          },
          {
            "atomIds": [
              1,
              5
            ],
            "bo": "SINGLE"
          },
          {
            "atomIds": [
              1,
              6
            ],
            "bo": "SINGLE"
          },
          {
            "atomIds": [
              2,
              7
            ],
            "bo": "SINGLE"
          },
          {
            "atomIds": [
              2,
              8
            ],
            "bo": "SINGLE"
          }
        ]
      },
      "vertexId": 138865,
      "buildingBlockId": 64,
      "buildingBlockType": "FRAGMENT",
      "isRCV": false,
      "properties": {
        "ATTACHMENT_POINTS": "1#bridge:0:SINGLE:-1.2321%-0.7501%-0.2550 3#bridge:0:SINGLE:1.2657%-0.6920%-0.2550 "
      },
      "uniquefyingPropertyKeys": [],
      "allowedMutationTypes": [
        "DELETE",
        "EXTEND",
        "CHANGEBRANCH",
        "CHANGELINK",
        "ADDLINK",
        "DELETELINK",
        "DELETECHAIN"
      ],
      "vertexType": "MolecularFragment"
    },
    {
      "lstAPs": [
        {
          "id": 247785,
          "atomPositionNumber": 0,
          "atomPositionNumberInMol": 36,
          "apClass": {
            "rule": "ATminus",
            "subClass": 0,
            "bndTyp": "ANY"
          },
          "dirVec": {
            "x": 0.0109,
            "y": -0.0071,
            "z": 0.0026
          }
        }
      ],
      "lstSymAPs": [],
      "mol": {
        "atoms": [
          {
            "elSymbol": "ATM",
            "p3d": {
              "x": -0.0096,
              "y": 0.0045,
              "z": -0.0011
            }
          }
        ],
        "bonds": []
      },
      "vertexId": 138866,
      "buildingBlockId": 78,
      "buildingBlockType": "FRAGMENT",
      "isRCV": true,
      "properties": {
        "ATTACHMENT_POINTS": "1#ATminus:0:ANY:0.0109%-0.0071%0.0026 "
      },
      "uniquefyingPropertyKeys": [],
      "allowedMutationTypes": [
        "DELETE",
        "EXTEND",
        "CHANGEBRANCH",
        "CHANGELINK",
        "ADDLINK",
        "DELETELINK",
        "DELETECHAIN"
      ],
      "vertexType": "MolecularFragment"
    },
    {
      "lstAPs": [
        {
          "id": 247786,
          "atomPositionNumber": 0,
          "atomPositionNumberInMol": 49,
          "apClass": {
            "rule": "ATminus",
            "subClass": 0,
            "bndTyp": "ANY"
          },
          "dirVec": {
            "x": 0.0109,
            "y": -0.0071,
            "z": 0.0026
          }
        }
      ],
      "lstSymAPs": [],
      "mol": {
        "atoms": [
          {
            "elSymbol": "ATM",
            "p3d": {
              "x": -0.0096,
              "y": 0.0045,
              "z": -0.0011
            }
          }
        ],
        "bonds": []
      },
      "vertexId": 138867,
      "buildingBlockId": 78,
      "buildingBlockType": "FRAGMENT",
      "isRCV": true,
      "properties": {
        "ATTACHMENT_POINTS": "1#ATminus:0:ANY:0.0109%-0.0071%0.0026 "
      },
      "uniquefyingPropertyKeys": [],
      "allowedMutationTypes": [
        "DELETE",
        "EXTEND",
        "CHANGEBRANCH",
        "CHANGELINK",
        "ADDLINK",
        "DELETELINK",
        "DELETECHAIN"
      ],
      "vertexType": "MolecularFragment"
    },
    {
      "lstAPs": [
        {
          "id": 247852,
          "atomPositionNumber": 0,
          "atomPositionNumberInMol": 8,
          "apClass": {
            "rule": "LAminoPhosphineCycloN",
            "subClass": 1,
            "bndTyp": "SINGLE"
          },
          "dirVec": {
            "x": 4.555,
            "y": 2.7674,
            "z": 17.4338
          }
        }
      ],
      "lstSymAPs": [],
      "mol": {
        "atoms": [
          {
            "elSymbol": "N",
            "p3d": {
              "x": 2.9381,
              "y": 2.7068,
              "z": 17.7892
            }
          },
          {
            "elSymbol": "C",
            "p3d": {
              "x": 2.2822,
              "y": 1.6786,
              "z": 18.5885
            }
          },
          {
            "elSymbol": "H",
            "p3d": {
              "x": 3.041,
              "y": 1.1815,
              "z": 19.2164
            }
          },
          {
            "elSymbol": "H",
            "p3d": {
              "x": 1.8455,
              "y": 0.9233,
              "z": 17.9289
            }
          },
          {
            "elSymbol": "C",
            "p3d": {
              "x": 1.221,
              "y": 2.2587,
              "z": 19.4673
            }
          },
          {
            "elSymbol": "H",
            "p3d": {
              "x": 0.7008,
              "y": 1.4356,
              "z": 19.9909
            }
          },
          {
            "elSymbol": "H",
            "p3d": {
              "x": 1.6761,
              "y": 2.9055,
              "z": 20.224
            }
          },
          {
            "elSymbol": "C",
            "p3d": {
              "x": 0.2145,
              "y": 3.0313,
              "z": 18.6782
            }
          },
          {
            "elSymbol": "H",
            "p3d": {
              "x": -0.4814,
              "y": 3.5202,
              "z": 19.3328
            }
          },
          {
            "elSymbol": "H",
            "p3d": {
              "x": -0.3461,
              "y": 2.3431,
              "z": 18.0363
            }
          },
          {
            "elSymbol": "C",
            "p3d": {
              "x": 0.9189,
              "y": 4.0677,
              "z": 17.8031
            }
          },
          {
            "elSymbol": "H",
            "p3d": {
              "x": 0.1705,
              "y": 4.5445,
              "z": 17.1575
            }
          },
          {
            "elSymbol": "H",
            "p3d": {
              "x": 1.3757,
              "y": 4.8286,
              "z": 18.4283
            }
          },
          {
            "elSymbol": "C",
            "p3d": {
              "x": 1.9754,
              "y": 3.4167,
              "z": 16.9636
            }
          },
          {
            "elSymbol": "H",
            "p3d": {
              "x": 1.4943,
              "y": 2.7385,
              "z": 16.2522
            }
          },
          {
            "elSymbol": "H",
            "p3d": {
              "x": 2.4831,
              "y": 4.1915,
              "z": 16.365
            }
          }
        ],
        "bonds": [
          {
            "atomIds": [
              1,
              0
            ],
            "bo": "SINGLE"
          },
          {
            "atomIds": [
              2,
              1
            ],
            "bo": "SINGLE"
          },
          {
            "atomIds": [
              3,
              1
            ],
            "bo": "SINGLE"
          },
          {
            "atomIds": [
              4,
              1
            ],
            "bo": "SINGLE"
          },
          {
            "atomIds": [
              5,
              4
            ],
            "bo": "SINGLE"
          },
          {
            "atomIds": [
              6,
              4
            ],
            "bo": "SINGLE"
          },
          {
            "atomIds": [
              7,
              4
            ],
            "bo": "SINGLE"
          },
          {
            "atomIds": [
              8,
              7
            ],
            "bo": "SINGLE"
          },
          {
            "atomIds": [
              9,
              7
            ],
            "bo": "SINGLE"
          },
          {
            "atomIds": [
              10,
              7
            ],
            "bo": "SINGLE"
          },
          {
            "atomIds": [
              11,
              10
            ],
            "bo": "SINGLE"
          },
          {
            "atomIds": [
              12,
              10
            ],
            "bo": "SINGLE"
          },
          {
            "atomIds": [
              13,
              0
            ],
            "bo": "SINGLE"
          },
          {
            "atomIds": [
              14,
              13
            ],
            "bo": "SINGLE"
          },
          {
            "atomIds": [
              15,
              13
            ],
            "bo": "SINGLE"
          },
          {
            "atomIds": [
              10,
              13
            ],
            "bo": "SINGLE"
          }
        ]
      },
      "vertexId": 379377,
      "buildingBlockId": 7,
      "buildingBlockType": "FRAGMENT",
      "isRCV": false,
      "properties": {
        "ATTACHMENT_POINTS": "1#LAminoPhosphineCycloN:1:SINGLE:4.5550%2.7674%17.4338 "
      },
      "uniquefyingPropertyKeys": [],
      "allowedMutationTypes": [
        "DELETE",
        "EXTEND",
        "CHANGEBRANCH",
        "CHANGELINK",
        "ADDLINK",
        "DELETELINK",
        "DELETECHAIN"
      ],
      "vertexType": "MolecularFragment"
    }
  ],
  "gEdges": [
    {
      "srcAPID": 247770,
      "trgAPID": 247774,
      "bondType": "SINGLE"
    },
    {
      "srcAPID": 247772,
      "trgAPID": 247775,
      "bondType": "SINGLE"
    },
    {
      "srcAPID": 247773,
      "trgAPID": 247776,
      "bondType": "SINGLE"
    },
    {
      "srcAPID": 247768,
      "trgAPID": 247777,
      "bondType": "SINGLE"
    },
    {
      "srcAPID": 247769,
      "trgAPID": 247779,
      "bondType": "SINGLE"
    },
    {
      "srcAPID": 247778,
      "trgAPID": 247781,
      "bondType": "SINGLE"
    },
    {
      "srcAPID": 247780,
      "trgAPID": 247783,
      "bondType": "SINGLE"
    },
    {
      "srcAPID": 247782,
      "trgAPID": 247785,
      "bondType": "SINGLE"
    },
    {
      "srcAPID": 247784,
      "trgAPID": 247786,
      "bondType": "SINGLE"
    },
    {
      "srcAPID": 247771,
      "trgAPID": 247852,
      "bondType": "SINGLE"
    }
  ],
  "gRings": [
    {
      "vertices": [
        138861,
        138859,
        138858,
        138863,
        138865,
        138867
      ],
      "bndTyp": "SINGLE"
    },
    {
      "vertices": [
        138860,
        138859,
        138858,
        138862,
        138864,
        138866
      ],
      "bndTyp": "SINGLE"
    }
  ],
  "symVertices": [
    {
      "symIds": [
        138860,
        138861
      ]
    },
    {
      "symIds": [
        138862,
        138863
      ]
    },
    {
      "symIds": [
        138864,
        138865
      ]
    },
    {
      "symIds": [
        138866,
        138867
      ]
    }
  ]
}

> <SMILES>
[Pt]12(C#O)[P](N3C([H])([H])C([H])([H])C([H])([H])C([H])([H])C3([H])[H])(C(C(C([H])([H])C(=O)O1)([H])[H])([H])[H])C(C(C([H])([H])C(=O)O2)([H])[H])([H])[H]

$$$$
