M00015884
  CDK     05032209033D

 49 54  0  0  0  0  0  0  0  0999 V2000
   -2.0365   -0.0196    1.3961 Pt  0  0  0  0  0  0  0  0  0  0  0  0
   -3.9711   -0.0427    1.6188 C   0  0  0  0  0  0  0  0  0  0  0  0
   -5.1073   -0.0694    1.7466 O   0  0  0  0  0  0  0  0  0  0  0  0
    0.1849   -0.0480    1.0688 P   0  0  0  0  0  0  0  0  0  0  0  0
    0.6767   -1.4074   -0.1076 C   0  0  0  0  0  0  0  0  0  0  0  0
    1.2648   -0.7834   -1.1370 C   0  0  0  0  0  0  0  0  0  0  0  0
    1.8862   -1.2615   -2.4070 C   0  0  0  0  0  0  0  0  0  0  0  0
    1.1880   -1.9107   -2.9714 H   0  0  0  0  0  0  0  0  0  0  0  0
    2.7794   -1.8818   -2.2016 H   0  0  0  0  0  0  0  0  0  0  0  0
    2.2527    0.0051   -3.2190 C   0  0  0  0  0  0  0  0  0  0  0  0
    1.7745   -0.0197   -4.2130 H   0  0  0  0  0  0  0  0  0  0  0  0
    3.3403    0.0488   -3.3982 H   0  0  0  0  0  0  0  0  0  0  0  0
    1.7830    1.2449   -2.4198 C   0  0  0  0  0  0  0  0  0  0  0  0
    2.6186    1.9451   -2.2303 H   0  0  0  0  0  0  0  0  0  0  0  0
    1.0250    1.8244   -2.9834 H   0  0  0  0  0  0  0  0  0  0  0  0
    1.2149    0.7290   -1.1407 C   0  0  0  0  0  0  0  0  0  0  0  0
    0.5970    1.3287   -0.1117 C   0  0  0  0  0  0  0  0  0  0  0  0
    1.2835   -0.0469    2.5696 C   0  0  0  0  0  0  0  0  0  0  0  0
    2.3484   -0.0822    2.3013 H   0  0  0  0  0  0  0  0  0  0  0  0
    1.0656   -0.9225    3.2061 H   0  0  0  0  0  0  0  0  0  0  0  0
    1.1195    0.8505    3.1864 H   0  0  0  0  0  0  0  0  0  0  0  0
   -1.8736   -2.0720    1.5458 O   0  0  0  0  0  0  0  0  0  0  0  0
   -1.4547   -2.6451    0.3357 C   0  0  2  0  0  0  0  0  0  0  0  0
   -1.8998   -4.1196    0.2738 C   0  0  0  0  0  0  0  0  0  0  0  0
   -0.8071   -4.8668   -0.5138 C   0  0  0  0  0  0  0  0  0  0  0  0
    0.3604   -3.8812   -0.7442 C   0  0  0  0  0  0  0  0  0  0  0  0
    0.1262   -2.7280    0.2479 C   0  0  1  0  0  0  0  0  0  0  0  0
   -1.8710   -2.0543   -0.5111 H   0  0  0  0  0  0  0  0  0  0  0  0
   -2.0045   -4.5129    1.3026 H   0  0  0  0  0  0  0  0  0  0  0  0
   -2.8914   -4.2193   -0.1923 H   0  0  0  0  0  0  0  0  0  0  0  0
   -1.1971   -5.2404   -1.4748 H   0  0  0  0  0  0  0  0  0  0  0  0
   -0.4651   -5.7530    0.0471 H   0  0  0  0  0  0  0  0  0  0  0  0
    0.3577   -3.5149   -1.7851 H   0  0  0  0  0  0  0  0  0  0  0  0
    1.3371   -4.3618   -0.5825 H   0  0  0  0  0  0  0  0  0  0  0  0
    0.5023   -3.0516    1.2541 H   0  0  0  0  0  0  0  0  0  0  0  0
   -2.2000    2.0305    1.2268 O   0  0  0  0  0  0  0  0  0  0  0  0
   -0.9897    2.7185    1.3740 C   0  0  2  0  0  0  0  0  0  0  0  0
   -1.2698    4.2325    1.4980 C   0  0  0  0  0  0  0  0  0  0  0  0
   -0.0304    4.9383    0.9159 C   0  0  0  0  0  0  0  0  0  0  0  0
    0.8303    3.8635    0.2146 C   0  0  0  0  0  0  0  0  0  0  0  0
   -0.0784    2.6264    0.0915 C   0  0  1  0  0  0  0  0  0  0  0  0
   -0.4735    2.3516    2.2885 H   0  0  0  0  0  0  0  0  0  0  0  0
   -2.1883    4.4822    0.9344 H   0  0  0  0  0  0  0  0  0  0  0  0
   -1.4668    4.5207    2.5411 H   0  0  0  0  0  0  0  0  0  0  0  0
    0.5460    5.4438    1.7080 H   0  0  0  0  0  0  0  0  0  0  0  0
   -0.3325    5.7245    0.2035 H   0  0  0  0  0  0  0  0  0  0  0  0
    1.7313    3.6321    0.8070 H   0  0  0  0  0  0  0  0  0  0  0  0
    1.1837    4.2040   -0.7707 H   0  0  0  0  0  0  0  0  0  0  0  0
   -0.7692    2.7715   -0.7885 H   0  0  0  0  0  0  0  0  0  0  0  0
  2  3  3  0  0  0  0
  1  2  1  0  0  0  0
  5  4  1  0  0  0  0
  6  5  2  0  0  0  0
  7  6  1  0  0  0  0
  8  7  1  0  0  0  0
  9  7  1  0  0  0  0
 10  7  1  0  0  0  0
 11 10  1  0  0  0  0
 12 10  1  0  0  0  0
 13 10  1  0  0  0  0
 13 16  1  0  0  0  0
 14 13  1  0  0  0  0
 15 13  1  0  0  0  0
 16  6  1  0  0  0  0
 16 17  2  0  0  0  0
 17  4  1  0  0  0  0
  1  4  1  0  0  0  0
 19 18  1  0  0  0  0
 20 18  1  0  0  0  0
 21 18  1  0  0  0  0
  4 18  1  0  0  0  0
  1 22  1  0  0  0  0
 23 24  1  0  0  0  0
 24 25  1  0  0  0  0
 25 26  1  0  0  0  0
 26 27  1  0  0  0  0
 23 27  1  0  0  0  0
 23 28  1  0  0  0  0
 24 29  1  0  0  0  0
 24 30  1  0  0  0  0
 25 31  1  0  0  0  0
 25 32  1  0  0  0  0
 26 33  1  0  0  0  0
 26 34  1  0  0  0  0
 27 35  1  0  0  0  0
 22 23  1  0  0  0  0
  1 36  1  0  0  0  0
 37 38  1  0  0  0  0
 38 39  1  0  0  0  0
 39 40  1  0  0  0  0
 40 41  1  0  0  0  0
 37 41  1  0  0  0  0
 37 42  1  0  0  0  0
 38 43  1  0  0  0  0
 38 44  1  0  0  0  0
 39 45  1  0  0  0  0
 39 46  1  0  0  0  0
 40 47  1  0  0  0  0
 40 48  1  0  0  0  0
 41 49  1  0  0  0  0
 36 37  1  0  0  0  0
 17 41  1  0  0  0  0
  5 27  1  0  0  0  0
M  END
> <PM6_ENERGY>
-359.465

> <UID>
DXFNSAVVTKYGHO-HFELNXJVNA-N

> <FITNESS>
1.14368

> <GCODE>
26964

> <GraphENC>
26964 181092_1_0,181093_47_1,181094_78_1,181095_78_1,181096_73_1,181097_73_1,181098_70_1,181099_70_1,181100_79_1,181101_79_1,945339_2_2, 181092_2_181093_1_SINGLE_scaff:0_MPhosphole:1,181093_3_181094_0_SINGLE_LPhospholeSubAlpha:0_ATplus:0,181093_2_181095_0_SINGLE_LPhospholeSubAlpha:0_ATplus:0,181092_1_181096_0_SINGLE_Xlig:0_Xlig:1,181092_0_181097_0_SINGLE_Xlig:0_Xlig:1,181096_1_181098_0_SINGLE_bridge:1_bridge:0,181097_1_181099_0_SINGLE_bridge:1_bridge:0,181098_1_181100_0_SINGLE_bridge:0_ATminus:0,181099_1_181101_0_SINGLE_bridge:0_ATminus:0,181093_0_945339_0_SINGLE_LPhospholeSubR:0_me:1, DENOPTIMRing [vertices=[181095_78_1, 181093_47_1, 181092_1_0, 181096_73_1, 181098_70_1, 181100_79_1]] DENOPTIMRing [vertices=[181094_78_1, 181093_47_1, 181092_1_0, 181097_73_1, 181099_70_1, 181101_79_1]] SymmetricSet [symIds=[181094, 181095]] SymmetricSet [symIds=[181096, 181097]] SymmetricSet [symIds=[181098, 181099]] SymmetricSet [symIds=[181100, 181101]] 

> <GraphJson>
{
  "graphId": 26964,
  "gVertices": [
    {
      "lstAPs": [
        {
          "id": 1135845,
          "atomPositionNumber": 0,
          "atomPositionNumberInMol": 0,
          "apClass": {
            "rule": "Xlig",
            "subClass": 0,
            "bndTyp": "SINGLE"
          },
          "dirVec": {
            "x": -2.3339,
            "y": -0.0087,
            "z": 0.8172
          }
        },
        {
          "id": 1135846,
          "atomPositionNumber": 0,
          "atomPositionNumberInMol": 0,
          "apClass": {
            "rule": "Xlig",
            "subClass": 0,
            "bndTyp": "SINGLE"
          },
          "dirVec": {
            "x": 2.336,
            "y": -5.0E-4,
            "z": 0.829
          }
        },
        {
          "id": 1135847,
          "atomPositionNumber": 0,
          "atomPositionNumberInMol": 0,
          "apClass": {
            "rule": "scaff",
            "subClass": 0,
            "bndTyp": "SINGLE"
          },
          "dirVec": {
            "x": -0.0095,
            "y": 0.0046,
            "z": -1.7113
          }
        }
      ],
      "lstSymAPs": [
        {
          "symIds": [
            0,
            1
          ]
        }
      ],
      "mol": {
        "atoms": [
          {
            "elSymbol": "Pt",
            "p3d": {
              "x": -0.0098,
              "y": 0.0049,
              "z": 0.6289
            }
          },
          {
            "elSymbol": "C",
            "p3d": {
              "x": -6.0E-4,
              "y": 0.0016,
              "z": 2.5609
            }
          },
          {
            "elSymbol": "O",
            "p3d": {
              "x": 0.0025,
              "y": -0.0041,
              "z": 3.6974
            }
          },
          {
            "elSymbol": "Du",
            "p3d": {
              "x": -0.007,
              "y": 1.0013,
              "z": 0.6372
            }
          },
          {
            "elSymbol": "Du",
            "p3d": {
              "x": -0.0014,
              "y": 0.9902,
              "z": 2.5698
            }
          }
        ],
        "bonds": [
          {
            "atomIds": [
              1,
              2
            ],
            "bo": "TRIPLE"
          },
          {
            "atomIds": [
              0,
              1
            ],
            "bo": "SINGLE"
          },
          {
            "atomIds": [
              3,
              0
            ],
            "bo": "SINGLE"
          },
          {
            "atomIds": [
              4,
              1
            ],
            "bo": "SINGLE"
          }
        ]
      },
      "vertexId": 181092,
      "buildingBlockId": 0,
      "buildingBlockType": "SCAFFOLD",
      "isRCV": false,
      "properties": {
        "ATTACHMENT_POINTS": "1#Xlig:0:SINGLE:-2.3339%-0.0087%0.8172,Xlig:0:SINGLE:2.3360%-0.0005%0.8290,scaff:0:SINGLE:-0.0095%0.0046%-1.7113 "
      },
      "uniquefyingPropertyKeys": [],
      "allowedMutationTypes": [
        "DELETE",
        "EXTEND",
        "CHANGEBRANCH",
        "CHANGELINK",
        "ADDLINK",
        "DELETELINK",
        "DELETECHAIN"
      ],
      "vertexType": "MolecularFragment"
    },
    {
      "lstAPs": [
        {
          "id": 1135848,
          "atomPositionNumber": 0,
          "atomPositionNumberInMol": 5,
          "apClass": {
            "rule": "LPhospholeSubR",
            "subClass": 0,
            "bndTyp": "SINGLE"
          },
          "dirVec": {
            "x": -1.6223792475758159,
            "y": 0.14132477366600837,
            "z": -2.568290516038104
          }
        },
        {
          "id": 1135849,
          "atomPositionNumber": 0,
          "atomPositionNumberInMol": 5,
          "apClass": {
            "rule": "MPhosphole",
            "subClass": 1,
            "bndTyp": "SINGLE"
          },
          "dirVec": {
            "x": -0.009800513108591112,
            "y": 0.004900513108591157,
            "z": 0.632902589083087
          }
        },
        {
          "id": 1135850,
          "atomPositionNumber": 1,
          "atomPositionNumberInMol": 6,
          "apClass": {
            "rule": "LPhospholeSubAlpha",
            "subClass": 0,
            "bndTyp": "SINGLE"
          },
          "dirVec": {
            "x": 1.1952099210498432,
            "y": 2.669985792653061,
            "z": -2.3085490332157885
          }
        },
        {
          "id": 1135851,
          "atomPositionNumber": 13,
          "atomPositionNumberInMol": 18,
          "apClass": {
            "rule": "LPhospholeSubAlpha",
            "subClass": 0,
            "bndTyp": "SINGLE"
          },
          "dirVec": {
            "x": 0.4502422566953904,
            "y": -2.9393437322817815,
            "z": -2.274792259665105
          }
        }
      ],
      "lstSymAPs": [
        {
          "symIds": [
            2,
            3
          ]
        }
      ],
      "mol": {
        "atoms": [
          {
            "elSymbol": "P",
            "p3d": {
              "x": -0.009499486891408886,
              "y": 0.004599486891408842,
              "z": -1.7153025890830875
            }
          },
          {
            "elSymbol": "C",
            "p3d": {
              "x": 1.0783338161736449,
              "y": 1.178000381546128,
              "z": -2.5560026635246693
            }
          },
          {
            "elSymbol": "C",
            "p3d": {
              "x": 1.8458852836802766,
              "y": 0.46320912540938514,
              "z": -3.4082000202906215
            }
          },
          {
            "elSymbol": "C",
            "p3d": {
              "x": 2.954333768463528,
              "y": 0.824759678550019,
              "z": -4.369950073113815
            }
          },
          {
            "elSymbol": "H",
            "p3d": {
              "x": 3.87757216603835,
              "y": 1.0568856210794946,
              "z": -3.8389821003995683
            }
          },
          {
            "elSymbol": "H",
            "p3d": {
              "x": 2.6695959919847176,
              "y": 1.6799245447101132,
              "z": -4.984360506237548
            }
          },
          {
            "elSymbol": "C",
            "p3d": {
              "x": 3.0992181734513657,
              "y": -0.44366371249945075,
              "z": -5.216608617173867
            }
          },
          {
            "elSymbol": "H",
            "p3d": {
              "x": 4.148808172636624,
              "y": -0.5943341667214755,
              "z": -5.481575799735818
            }
          },
          {
            "elSymbol": "H",
            "p3d": {
              "x": 2.5123560986654963,
              "y": -0.3536916988386168,
              "z": -6.143449165453795
            }
          },
          {
            "elSymbol": "C",
            "p3d": {
              "x": 2.5757596245276853,
              "y": -1.6272292684271492,
              "z": -4.37343739946048
            }
          },
          {
            "elSymbol": "H",
            "p3d": {
              "x": 2.067568958121175,
              "y": -2.3526812231615017,
              "z": -4.994721076977774
            }
          },
          {
            "elSymbol": "H",
            "p3d": {
              "x": 3.4017618724916288,
              "y": -2.12648343394326,
              "z": -3.869328666573094
            }
          },
          {
            "elSymbol": "C",
            "p3d": {
              "x": 1.653574122857636,
              "y": -0.9806588575835472,
              "z": -3.401091918506773
            }
          },
          {
            "elSymbol": "C",
            "p3d": {
              "x": 0.7467262413835863,
              "y": -1.4689933619345572,
              "z": -2.5304198897116112
            }
          }
        ],
        "bonds": [
          {
            "atomIds": [
              1,
              0
            ],
            "bo": "SINGLE"
          },
          {
            "atomIds": [
              2,
              1
            ],
            "bo": "DOUBLE"
          },
          {
            "atomIds": [
              3,
              2
            ],
            "bo": "SINGLE"
          },
          {
            "atomIds": [
              4,
              3
            ],
            "bo": "SINGLE"
          },
          {
            "atomIds": [
              5,
              3
            ],
            "bo": "SINGLE"
          },
          {
            "atomIds": [
              6,
              3
            ],
            "bo": "SINGLE"
          },
          {
            "atomIds": [
              7,
              6
            ],
            "bo": "SINGLE"
          },
          {
            "atomIds": [
              8,
              6
            ],
            "bo": "SINGLE"
          },
          {
            "atomIds": [
              9,
              6
            ],
            "bo": "SINGLE"
          },
          {
            "atomIds": [
              9,
              12
            ],
            "bo": "SINGLE"
          },
          {
            "atomIds": [
              10,
              9
            ],
            "bo": "SINGLE"
          },
          {
            "atomIds": [
              11,
              9
            ],
            "bo": "SINGLE"
          },
          {
            "atomIds": [
              12,
              2
            ],
            "bo": "SINGLE"
          },
          {
            "atomIds": [
              12,
              13
            ],
            "bo": "DOUBLE"
          },
          {
            "atomIds": [
              13,
              0
            ],
            "bo": "SINGLE"
          }
        ]
      },
      "vertexId": 181093,
      "buildingBlockId": 46,
      "buildingBlockType": "FRAGMENT",
      "isRCV": false,
      "properties": {
        "ATTACHMENT_POINTS": "1#LPhospholeSubR:0:SINGLE:-1.6224%0.1413%-2.5683,MPhosphole:1:SINGLE:-0.0098%0.0049%0.6329 2#LPhospholeSubAlpha:0:SINGLE:1.1952%2.6700%-2.3085 14#LPhospholeSubAlpha:0:SINGLE:0.4502%-2.9393%-2.2748 "
      },
      "uniquefyingPropertyKeys": [],
      "allowedMutationTypes": [
        "DELETE",
        "EXTEND",
        "CHANGEBRANCH",
        "CHANGELINK",
        "ADDLINK",
        "DELETELINK",
        "DELETECHAIN"
      ],
      "vertexType": "MolecularFragment"
    },
    {
      "lstAPs": [
        {
          "id": 1135852,
          "atomPositionNumber": 0,
          "atomPositionNumberInMol": 19,
          "apClass": {
            "rule": "ATplus",
            "subClass": 0,
            "bndTyp": "ANY"
          },
          "dirVec": {
            "x": 0.4502422566953904,
            "y": -2.9393437322817815,
            "z": -2.274792259665105
          }
        }
      ],
      "lstSymAPs": [],
      "mol": {
        "atoms": [
          {
            "elSymbol": "ATP",
            "p3d": {
              "x": 0.44615185701331184,
              "y": -2.959629214796925,
              "z": -2.2712655289454933
            }
          }
        ],
        "bonds": []
      },
      "vertexId": 181094,
      "buildingBlockId": 77,
      "buildingBlockType": "FRAGMENT",
      "isRCV": true,
      "properties": {
        "ATTACHMENT_POINTS": "1#ATplus:0:ANY:0.4502%-2.9393%-2.2748 "
      },
      "uniquefyingPropertyKeys": [],
      "allowedMutationTypes": [
        "DELETE",
        "EXTEND",
        "CHANGEBRANCH",
        "CHANGELINK",
        "ADDLINK",
        "DELETELINK",
        "DELETECHAIN"
      ],
      "vertexType": "MolecularFragment"
    },
    {
      "lstAPs": [
        {
          "id": 1135853,
          "atomPositionNumber": 0,
          "atomPositionNumberInMol": 20,
          "apClass": {
            "rule": "ATplus",
            "subClass": 0,
            "bndTyp": "ANY"
          },
          "dirVec": {
            "x": 1.1952099210498432,
            "y": 2.669985792653061,
            "z": -2.3085490332157885
          }
        }
      ],
      "lstSymAPs": [],
      "mol": {
        "atoms": [
          {
            "elSymbol": "ATP",
            "p3d": {
              "x": 1.19682737639236,
              "y": 2.6906334671859207,
              "z": -2.3051245077596034
            }
          }
        ],
        "bonds": []
      },
      "vertexId": 181095,
      "buildingBlockId": 77,
      "buildingBlockType": "FRAGMENT",
      "isRCV": true,
      "properties": {
        "ATTACHMENT_POINTS": "1#ATplus:0:ANY:1.1952%2.6700%-2.3085 "
      },
      "uniquefyingPropertyKeys": [],
      "allowedMutationTypes": [
        "DELETE",
        "EXTEND",
        "CHANGEBRANCH",
        "CHANGELINK",
        "ADDLINK",
        "DELETELINK",
        "DELETECHAIN"
      ],
      "vertexType": "MolecularFragment"
    },
    {
      "lstAPs": [
        {
          "id": 1135854,
          "atomPositionNumber": 0,
          "atomPositionNumberInMol": 25,
          "apClass": {
            "rule": "Xlig",
            "subClass": 1,
            "bndTyp": "SINGLE"
          },
          "dirVec": {
            "x": -0.1753,
            "y": 0.0948,
            "z": -0.4464
          }
        },
        {
          "id": 1135855,
          "atomPositionNumber": 0,
          "atomPositionNumberInMol": 25,
          "apClass": {
            "rule": "bridge",
            "subClass": 1,
            "bndTyp": "SINGLE"
          },
          "dirVec": {
            "x": -0.5345,
            "y": 2.7646,
            "z": 0.48009999999999997
          }
        }
      ],
      "lstSymAPs": [],
      "mol": {
        "atoms": [
          {
            "elSymbol": "O",
            "p3d": {
              "x": -0.3534,
              "y": 2.1044,
              "z": -0.7339
            }
          }
        ],
        "bonds": []
      },
      "vertexId": 181096,
      "buildingBlockId": 72,
      "buildingBlockType": "FRAGMENT",
      "isRCV": false,
      "properties": {
        "ATTACHMENT_POINTS": "1#Xlig:1:SINGLE:-0.1753%0.0948%-0.4464,bridge:1:SINGLE:-0.5345%2.7646%0.4801 "
      },
      "uniquefyingPropertyKeys": [],
      "allowedMutationTypes": [
        "DELETE",
        "EXTEND",
        "CHANGEBRANCH",
        "CHANGELINK",
        "ADDLINK",
        "DELETELINK",
        "DELETECHAIN"
      ],
      "vertexType": "MolecularFragment"
    },
    {
      "lstAPs": [
        {
          "id": 1135856,
          "atomPositionNumber": 0,
          "atomPositionNumberInMol": 40,
          "apClass": {
            "rule": "Xlig",
            "subClass": 1,
            "bndTyp": "SINGLE"
          },
          "dirVec": {
            "x": -0.1753,
            "y": 0.0948,
            "z": -0.4464
          }
        },
        {
          "id": 1135857,
          "atomPositionNumber": 0,
          "atomPositionNumberInMol": 40,
          "apClass": {
            "rule": "bridge",
            "subClass": 1,
            "bndTyp": "SINGLE"
          },
          "dirVec": {
            "x": -0.5345,
            "y": 2.7646,
            "z": 0.48009999999999997
          }
        }
      ],
      "lstSymAPs": [],
      "mol": {
        "atoms": [
          {
            "elSymbol": "O",
            "p3d": {
              "x": -0.3534,
              "y": 2.1044,
              "z": -0.7339
            }
          }
        ],
        "bonds": []
      },
      "vertexId": 181097,
      "buildingBlockId": 72,
      "buildingBlockType": "FRAGMENT",
      "isRCV": false,
      "properties": {
        "ATTACHMENT_POINTS": "1#Xlig:1:SINGLE:-0.1753%0.0948%-0.4464,bridge:1:SINGLE:-0.5345%2.7646%0.4801 "
      },
      "uniquefyingPropertyKeys": [],
      "allowedMutationTypes": [
        "DELETE",
        "EXTEND",
        "CHANGEBRANCH",
        "CHANGELINK",
        "ADDLINK",
        "DELETELINK",
        "DELETECHAIN"
      ],
      "vertexType": "MolecularFragment"
    },
    {
      "lstAPs": [
        {
          "id": 1135858,
          "atomPositionNumber": 0,
          "atomPositionNumberInMol": 26,
          "apClass": {
            "rule": "bridge",
            "subClass": 0,
            "bndTyp": "SINGLE"
          },
          "dirVec": {
            "x": 2.2309,
            "y": 1.5817,
            "z": 0.6565999999999999
          }
        },
        {
          "id": 1135859,
          "atomPositionNumber": 4,
          "atomPositionNumberInMol": 30,
          "apClass": {
            "rule": "bridge",
            "subClass": 0,
            "bndTyp": "SINGLE"
          },
          "dirVec": {
            "x": 1.1795,
            "y": -0.8206,
            "z": 2.1815
          }
        }
      ],
      "lstSymAPs": [
        {
          "symIds": [
            0,
            1
          ]
        }
      ],
      "mol": {
        "atoms": [
          {
            "elSymbol": "C",
            "p3d": {
              "x": 1.4767,
              "y": 0.4111,
              "z": -0.0358
            }
          },
          {
            "elSymbol": "C",
            "p3d": {
              "x": 0.6064,
              "y": 0.7242,
              "z": -1.2721
            }
          },
          {
            "elSymbol": "C",
            "p3d": {
              "x": -0.3951,
              "y": -0.4594,
              "z": -1.3469
            }
          },
          {
            "elSymbol": "C",
            "p3d": {
              "x": -0.3076,
              "y": -1.2087,
              "z": 0.0097
            }
          },
          {
            "elSymbol": "C",
            "p3d": {
              "x": 0.4613,
              "y": -0.2385,
              "z": 0.9321
            }
          },
          {
            "elSymbol": "H",
            "p3d": {
              "x": 2.2245,
              "y": -0.3328,
              "z": -0.3416
            }
          },
          {
            "elSymbol": "H",
            "p3d": {
              "x": 0.0672,
              "y": 1.6663,
              "z": -1.1316
            }
          },
          {
            "elSymbol": "H",
            "p3d": {
              "x": 1.2126,
              "y": 0.798,
              "z": -2.1799
            }
          },
          {
            "elSymbol": "H",
            "p3d": {
              "x": -0.1332,
              "y": -1.1322,
              "z": -2.1707
            }
          },
          {
            "elSymbol": "H",
            "p3d": {
              "x": -1.4103,
              "y": -0.0853,
              "z": -1.5178
            }
          },
          {
            "elSymbol": "H",
            "p3d": {
              "x": 0.248,
              "y": -2.143,
              "z": -0.114
            }
          },
          {
            "elSymbol": "H",
            "p3d": {
              "x": -1.2998,
              "y": -1.4376,
              "z": 0.4073
            }
          },
          {
            "elSymbol": "H",
            "p3d": {
              "x": -0.2539,
              "y": 0.5182,
              "z": 1.28
            }
          }
        ],
        "bonds": [
          {
            "atomIds": [
              0,
              1
            ],
            "bo": "SINGLE"
          },
          {
            "atomIds": [
              1,
              2
            ],
            "bo": "SINGLE"
          },
          {
            "atomIds": [
              2,
              3
            ],
            "bo": "SINGLE"
          },
          {
            "atomIds": [
              3,
              4
            ],
            "bo": "SINGLE"
          },
          {
            "atomIds": [
              0,
              4
            ],
            "bo": "SINGLE"
          },
          {
            "atomIds": [
              0,
              5
            ],
            "bo": "SINGLE"
          },
          {
            "atomIds": [
              1,
              6
            ],
            "bo": "SINGLE"
          },
          {
            "atomIds": [
              1,
              7
            ],
            "bo": "SINGLE"
          },
          {
            "atomIds": [
              2,
              8
            ],
            "bo": "SINGLE"
          },
          {
            "atomIds": [
              2,
              9
            ],
            "bo": "SINGLE"
          },
          {
            "atomIds": [
              3,
              10
            ],
            "bo": "SINGLE"
          },
          {
            "atomIds": [
              3,
              11
            ],
            "bo": "SINGLE"
          },
          {
            "atomIds": [
              4,
              12
            ],
            "bo": "SINGLE"
          }
        ]
      },
      "vertexId": 181098,
      "buildingBlockId": 69,
      "buildingBlockType": "FRAGMENT",
      "isRCV": false,
      "properties": {
        "ATTACHMENT_POINTS": "1#bridge:0:SINGLE:2.2309%1.5817%0.6566 5#bridge:0:SINGLE:1.1795%-0.8206%2.1815 "
      },
      "uniquefyingPropertyKeys": [],
      "allowedMutationTypes": [
        "DELETE",
        "EXTEND",
        "CHANGEBRANCH",
        "CHANGELINK",
        "ADDLINK",
        "DELETELINK",
        "DELETECHAIN"
      ],
      "vertexType": "MolecularFragment"
    },
    {
      "lstAPs": [
        {
          "id": 1135860,
          "atomPositionNumber": 0,
          "atomPositionNumberInMol": 41,
          "apClass": {
            "rule": "bridge",
            "subClass": 0,
            "bndTyp": "SINGLE"
          },
          "dirVec": {
            "x": 2.2309,
            "y": 1.5817,
            "z": 0.6565999999999999
          }
        },
        {
          "id": 1135861,
          "atomPositionNumber": 4,
          "atomPositionNumberInMol": 45,
          "apClass": {
            "rule": "bridge",
            "subClass": 0,
            "bndTyp": "SINGLE"
          },
          "dirVec": {
            "x": 1.1795,
            "y": -0.8206,
            "z": 2.1815
          }
        }
      ],
      "lstSymAPs": [
        {
          "symIds": [
            0,
            1
          ]
        }
      ],
      "mol": {
        "atoms": [
          {
            "elSymbol": "C",
            "p3d": {
              "x": 1.4767,
              "y": 0.4111,
              "z": -0.0358
            }
          },
          {
            "elSymbol": "C",
            "p3d": {
              "x": 0.6064,
              "y": 0.7242,
              "z": -1.2721
            }
          },
          {
            "elSymbol": "C",
            "p3d": {
              "x": -0.3951,
              "y": -0.4594,
              "z": -1.3469
            }
          },
          {
            "elSymbol": "C",
            "p3d": {
              "x": -0.3076,
              "y": -1.2087,
              "z": 0.0097
            }
          },
          {
            "elSymbol": "C",
            "p3d": {
              "x": 0.4613,
              "y": -0.2385,
              "z": 0.9321
            }
          },
          {
            "elSymbol": "H",
            "p3d": {
              "x": 2.2245,
              "y": -0.3328,
              "z": -0.3416
            }
          },
          {
            "elSymbol": "H",
            "p3d": {
              "x": 0.0672,
              "y": 1.6663,
              "z": -1.1316
            }
          },
          {
            "elSymbol": "H",
            "p3d": {
              "x": 1.2126,
              "y": 0.798,
              "z": -2.1799
            }
          },
          {
            "elSymbol": "H",
            "p3d": {
              "x": -0.1332,
              "y": -1.1322,
              "z": -2.1707
            }
          },
          {
            "elSymbol": "H",
            "p3d": {
              "x": -1.4103,
              "y": -0.0853,
              "z": -1.5178
            }
          },
          {
            "elSymbol": "H",
            "p3d": {
              "x": 0.248,
              "y": -2.143,
              "z": -0.114
            }
          },
          {
            "elSymbol": "H",
            "p3d": {
              "x": -1.2998,
              "y": -1.4376,
              "z": 0.4073
            }
          },
          {
            "elSymbol": "H",
            "p3d": {
              "x": -0.2539,
              "y": 0.5182,
              "z": 1.28
            }
          }
        ],
        "bonds": [
          {
            "atomIds": [
              0,
              1
            ],
            "bo": "SINGLE"
          },
          {
            "atomIds": [
              1,
              2
            ],
            "bo": "SINGLE"
          },
          {
            "atomIds": [
              2,
              3
            ],
            "bo": "SINGLE"
          },
          {
            "atomIds": [
              3,
              4
            ],
            "bo": "SINGLE"
          },
          {
            "atomIds": [
              0,
              4
            ],
            "bo": "SINGLE"
          },
          {
            "atomIds": [
              0,
              5
            ],
            "bo": "SINGLE"
          },
          {
            "atomIds": [
              1,
              6
            ],
            "bo": "SINGLE"
          },
          {
            "atomIds": [
              1,
              7
            ],
            "bo": "SINGLE"
          },
          {
            "atomIds": [
              2,
              8
            ],
            "bo": "SINGLE"
          },
          {
            "atomIds": [
              2,
              9
            ],
            "bo": "SINGLE"
          },
          {
            "atomIds": [
              3,
              10
            ],
            "bo": "SINGLE"
          },
          {
            "atomIds": [
              3,
              11
            ],
            "bo": "SINGLE"
          },
          {
            "atomIds": [
              4,
              12
            ],
            "bo": "SINGLE"
          }
        ]
      },
      "vertexId": 181099,
      "buildingBlockId": 69,
      "buildingBlockType": "FRAGMENT",
      "isRCV": false,
      "properties": {
        "ATTACHMENT_POINTS": "1#bridge:0:SINGLE:2.2309%1.5817%0.6566 5#bridge:0:SINGLE:1.1795%-0.8206%2.1815 "
      },
      "uniquefyingPropertyKeys": [],
      "allowedMutationTypes": [
        "DELETE",
        "EXTEND",
        "CHANGEBRANCH",
        "CHANGELINK",
        "ADDLINK",
        "DELETELINK",
        "DELETECHAIN"
      ],
      "vertexType": "MolecularFragment"
    },
    {
      "lstAPs": [
        {
          "id": 1135862,
          "atomPositionNumber": 0,
          "atomPositionNumberInMol": 39,
          "apClass": {
            "rule": "ATminus",
            "subClass": 0,
            "bndTyp": "ANY"
          },
          "dirVec": {
            "x": 0.0109,
            "y": -0.0071,
            "z": 0.0026
          }
        }
      ],
      "lstSymAPs": [],
      "mol": {
        "atoms": [
          {
            "elSymbol": "ATM",
            "p3d": {
              "x": -0.0096,
              "y": 0.0045,
              "z": -0.0011
            }
          }
        ],
        "bonds": []
      },
      "vertexId": 181100,
      "buildingBlockId": 78,
      "buildingBlockType": "FRAGMENT",
      "isRCV": true,
      "properties": {
        "ATTACHMENT_POINTS": "1#ATminus:0:ANY:0.0109%-0.0071%0.0026 "
      },
      "uniquefyingPropertyKeys": [],
      "allowedMutationTypes": [
        "DELETE",
        "EXTEND",
        "CHANGEBRANCH",
        "CHANGELINK",
        "ADDLINK",
        "DELETELINK",
        "DELETECHAIN"
      ],
      "vertexType": "MolecularFragment"
    },
    {
      "lstAPs": [
        {
          "id": 1135863,
          "atomPositionNumber": 0,
          "atomPositionNumberInMol": 54,
          "apClass": {
            "rule": "ATminus",
            "subClass": 0,
            "bndTyp": "ANY"
          },
          "dirVec": {
            "x": 0.0109,
            "y": -0.0071,
            "z": 0.0026
          }
        }
      ],
      "lstSymAPs": [],
      "mol": {
        "atoms": [
          {
            "elSymbol": "ATM",
            "p3d": {
              "x": -0.0096,
              "y": 0.0045,
              "z": -0.0011
            }
          }
        ],
        "bonds": []
      },
      "vertexId": 181101,
      "buildingBlockId": 78,
      "buildingBlockType": "FRAGMENT",
      "isRCV": true,
      "properties": {
        "ATTACHMENT_POINTS": "1#ATminus:0:ANY:0.0109%-0.0071%0.0026 "
      },
      "uniquefyingPropertyKeys": [],
      "allowedMutationTypes": [
        "DELETE",
        "EXTEND",
        "CHANGEBRANCH",
        "CHANGELINK",
        "ADDLINK",
        "DELETELINK",
        "DELETECHAIN"
      ],
      "vertexType": "MolecularFragment"
    },
    {
      "lstAPs": [
        {
          "id": 1135941,
          "atomPositionNumber": 0,
          "atomPositionNumberInMol": 21,
          "apClass": {
            "rule": "me",
            "subClass": 1,
            "bndTyp": "SINGLE"
          },
          "dirVec": {
            "x": 6.4052,
            "y": 0.4666,
            "z": 7.6784
          }
        }
      ],
      "lstSymAPs": [],
      "mol": {
        "atoms": [
          {
            "elSymbol": "C",
            "p3d": {
              "x": 5.1845,
              "y": -0.3158,
              "z": 7.9034
            }
          },
          {
            "elSymbol": "H",
            "p3d": {
              "x": 4.4018,
              "y": 0.0156,
              "z": 7.2277
            }
          },
          {
            "elSymbol": "H",
            "p3d": {
              "x": 4.8466,
              "y": -0.2064,
              "z": 8.9326
            }
          },
          {
            "elSymbol": "H",
            "p3d": {
              "x": 5.4032,
              "y": -1.3837,
              "z": 7.7252
            }
          }
        ],
        "bonds": [
          {
            "atomIds": [
              1,
              0
            ],
            "bo": "SINGLE"
          },
          {
            "atomIds": [
              2,
              0
            ],
            "bo": "SINGLE"
          },
          {
            "atomIds": [
              3,
              0
            ],
            "bo": "SINGLE"
          }
        ]
      },
      "vertexId": 945339,
      "buildingBlockId": 1,
      "buildingBlockType": "CAP",
      "isRCV": false,
      "properties": {
        "ATTACHMENT_POINTS": "1#me:1:SINGLE:6.4052%0.4666%7.6784 "
      },
      "uniquefyingPropertyKeys": [],
      "allowedMutationTypes": [
        "DELETE",
        "EXTEND",
        "CHANGEBRANCH",
        "CHANGELINK",
        "ADDLINK",
        "DELETELINK",
        "DELETECHAIN"
      ],
      "vertexType": "MolecularFragment"
    }
  ],
  "gEdges": [
    {
      "srcAPID": 1135847,
      "trgAPID": 1135849,
      "bondType": "SINGLE"
    },
    {
      "srcAPID": 1135851,
      "trgAPID": 1135852,
      "bondType": "SINGLE"
    },
    {
      "srcAPID": 1135850,
      "trgAPID": 1135853,
      "bondType": "SINGLE"
    },
    {
      "srcAPID": 1135846,
      "trgAPID": 1135854,
      "bondType": "SINGLE"
    },
    {
      "srcAPID": 1135845,
      "trgAPID": 1135856,
      "bondType": "SINGLE"
    },
    {
      "srcAPID": 1135855,
      "trgAPID": 1135858,
      "bondType": "SINGLE"
    },
    {
      "srcAPID": 1135857,
      "trgAPID": 1135860,
      "bondType": "SINGLE"
    },
    {
      "srcAPID": 1135859,
      "trgAPID": 1135862,
      "bondType": "SINGLE"
    },
    {
      "srcAPID": 1135861,
      "trgAPID": 1135863,
      "bondType": "SINGLE"
    },
    {
      "srcAPID": 1135848,
      "trgAPID": 1135941,
      "bondType": "SINGLE"
    }
  ],
  "gRings": [
    {
      "vertices": [
        181095,
        181093,
        181092,
        181096,
        181098,
        181100
      ],
      "bndTyp": "SINGLE"
    },
    {
      "vertices": [
        181094,
        181093,
        181092,
        181097,
        181099,
        181101
      ],
      "bndTyp": "SINGLE"
    }
  ],
  "symVertices": [
    {
      "symIds": [
        181094,
        181095
      ]
    },
    {
      "symIds": [
        181096,
        181097
      ]
    },
    {
      "symIds": [
        181098,
        181099
      ]
    },
    {
      "symIds": [
        181100,
        181101
      ]
    }
  ]
}

> <SMILES>
[Pt]12(C#O)[P]3(C(=C4C([H])([H])C([H])([H])C(C4=C3C5(C(C(C(C5([H])O1)([H])[H])([H])[H])([H])[H])[H])([H])[H])C6(C(C(C(C6([H])O2)([H])[H])([H])[H])([H])[H])[H])C([H])([H])[H]

$$$$
