M00023814
  CDK     05032209413D

 41 44  0  0  0  0  0  0  0  0999 V2000
   -2.4033    0.0040    0.8188 Pt  0  0  0  0  0  0  0  0  0  0  0  0
   -4.3167    0.0057    1.1257 C   0  0  0  0  0  0  0  0  0  0  0  0
   -5.4505    0.0066    1.2853 O   0  0  0  0  0  0  0  0  0  0  0  0
   -0.2047    0.0017    0.3595 P   0  0  0  0  0  0  0  0  0  0  0  0
    0.1481    1.3421   -0.8704 C   0  0  0  0  0  0  0  0  0  0  0  0
    0.6311    0.7433   -1.9775 C   0  0  0  0  0  0  0  0  0  0  0  0
    0.6314   -0.7681   -1.9683 C   0  0  0  0  0  0  0  0  0  0  0  0
    0.1487   -1.3535   -0.8539 C   0  0  0  0  0  0  0  0  0  0  0  0
    1.0606    1.4602   -3.2059 C   0  0  0  0  0  0  0  0  0  0  0  0
    1.0228    2.5528   -3.0828 H   0  0  0  0  0  0  0  0  0  0  0  0
    2.0927    1.2023   -3.4837 H   0  0  0  0  0  0  0  0  0  0  0  0
    0.4178    1.2119   -4.0640 H   0  0  0  0  0  0  0  0  0  0  0  0
    1.0608   -1.4998   -3.1879 C   0  0  0  0  0  0  0  0  0  0  0  0
    1.0235   -2.5908   -3.0514 H   0  0  0  0  0  0  0  0  0  0  0  0
    0.4178   -1.2623   -4.0488 H   0  0  0  0  0  0  0  0  0  0  0  0
    2.0928   -1.2449   -3.4691 H   0  0  0  0  0  0  0  0  0  0  0  0
    0.9232    0.0113    1.7996 C   0  0  0  0  0  0  0  0  0  0  0  0
    2.5212    0.0271    4.0660 C   0  0  0  0  0  0  0  0  0  0  0  0
    0.3163    0.0239    3.0575 C   0  0  0  0  0  0  0  0  0  0  0  0
    2.3110    0.0064    1.6498 C   0  0  0  0  0  0  0  0  0  0  0  0
    3.1121    0.0144    2.7962 C   0  0  0  0  0  0  0  0  0  0  0  0
    1.1300    0.0319    4.1983 C   0  0  0  0  0  0  0  0  0  0  0  0
   -0.7767    0.0277    3.1755 H   0  0  0  0  0  0  0  0  0  0  0  0
    2.7868   -0.0035    0.6678 H   0  0  0  0  0  0  0  0  0  0  0  0
    4.1968    0.0108    2.7022 H   0  0  0  0  0  0  0  0  0  0  0  0
    0.6743    0.0417    5.1881 H   0  0  0  0  0  0  0  0  0  0  0  0
    3.1513    0.0334    4.9560 H   0  0  0  0  0  0  0  0  0  0  0  0
   -2.3061   -2.0506    0.8985 O   0  0  0  0  0  0  0  0  0  0  0  0
   -0.3719   -2.6896   -0.5049 C   0  0  0  0  0  0  0  0  0  0  0  0
   -1.9216   -2.6487   -0.3111 C   0  0  0  0  0  0  0  0  0  0  0  0
    0.0902   -3.0833    0.4279 H   0  0  0  0  0  0  0  0  0  0  0  0
   -0.1297   -3.4338   -1.2902 H   0  0  0  0  0  0  0  0  0  0  0  0
   -2.4119   -2.1302   -1.1569 H   0  0  0  0  0  0  0  0  0  0  0  0
   -2.3066   -3.6870   -0.2373 H   0  0  0  0  0  0  0  0  0  0  0  0
   -2.3055    2.0595    0.8748 O   0  0  0  0  0  0  0  0  0  0  0  0
   -0.3726    2.6822   -0.5376 C   0  0  0  0  0  0  0  0  0  0  0  0
   -1.9221    2.6434   -0.3421 C   0  0  0  0  0  0  0  0  0  0  0  0
   -0.1312    3.4167   -1.3322 H   0  0  0  0  0  0  0  0  0  0  0  0
    0.0901    3.0875    0.3900 H   0  0  0  0  0  0  0  0  0  0  0  0
   -2.3072    3.6824   -0.2801 H   0  0  0  0  0  0  0  0  0  0  0  0
   -2.4130    2.1150   -1.1813 H   0  0  0  0  0  0  0  0  0  0  0  0
  2  3  3  0  0  0  0
  1  2  1  0  0  0  0
  5  4  1  0  0  0  0
  6  5  2  0  0  0  0
  7  6  1  0  0  0  0
  8  4  1  0  0  0  0
  7  8  2  0  0  0  0
  1  4  1  0  0  0  0
  9 10  1  0  0  0  0
  9 11  1  0  0  0  0
  9 12  1  0  0  0  0
  6  9  1  0  0  0  0
 13 14  1  0  0  0  0
 13 15  1  0  0  0  0
 13 16  1  0  0  0  0
  7 13  1  0  0  0  0
 17 20  1  0  0  0  0
 20 21  2  0  0  0  0
 18 21  1  0  0  0  0
 18 22  2  0  0  0  0
 19 22  1  0  0  0  0
 17 19  2  0  0  0  0
 21 25  1  0  0  0  0
 22 26  1  0  0  0  0
 18 27  1  0  0  0  0
 19 23  1  0  0  0  0
 20 24  1  0  0  0  0
  4 17  1  0  0  0  0
  1 28  1  0  0  0  0
 29 30  1  0  0  0  0
 29 31  1  0  0  0  0
 29 32  1  0  0  0  0
 30 33  1  0  0  0  0
 30 34  1  0  0  0  0
 28 30  1  0  0  0  0
  1 35  1  0  0  0  0
 36 37  1  0  0  0  0
 36 38  1  0  0  0  0
 36 39  1  0  0  0  0
 37 40  1  0  0  0  0
 37 41  1  0  0  0  0
 35 37  1  0  0  0  0
  5 36  1  0  0  0  0
  8 29  1  0  0  0  0
M  END
> <PM6_ENERGY>
-194.208

> <UID>
XRNBDKCWNYLEKR-LYCJOHBBNA-N

> <FITNESS>
1.14498

> <GCODE>
34894

> <GraphENC>
34894 195844_1_0,195845_49_1,195846_78_1,195847_78_1,195848_73_1,195849_73_1,195850_66_1,195851_66_1,195852_79_1,195853_79_1,1197575_24_1,1198301_24_1,1197571_29_1, 195844_2_195845_1_SINGLE_scaff:0_MPhosphole:1,195845_5_195846_0_SINGLE_LPhospholeSubAlpha:0_ATplus:0,195845_2_195847_0_SINGLE_LPhospholeSubAlpha:0_ATplus:0,195844_1_195848_0_SINGLE_Xlig:0_Xlig:1,195844_0_195849_0_SINGLE_Xlig:0_Xlig:1,195848_1_195850_0_SINGLE_bridge:1_bridge:0,195849_1_195851_0_SINGLE_bridge:1_bridge:0,195851_1_195852_0_SINGLE_bridge:0_ATminus:0,195850_1_195853_0_SINGLE_bridge:0_ATminus:0,195845_3_1197575_0_SINGLE_LPhospholeSubBeta:0_SubRS:1,195845_4_1198301_0_SINGLE_LPhospholeSubBeta:0_SubRS:1,195845_0_1197571_0_SINGLE_LPhospholeSubR:0_SubArS:1, DENOPTIMRing [vertices=[195846_78_1, 195845_49_1, 195844_1_0, 195848_73_1, 195850_66_1, 195853_79_1]] DENOPTIMRing [vertices=[195847_78_1, 195845_49_1, 195844_1_0, 195849_73_1, 195851_66_1, 195852_79_1]] SymmetricSet [symIds=[195846, 195847]] SymmetricSet [symIds=[195848, 195849]] SymmetricSet [symIds=[195850, 195851]] SymmetricSet [symIds=[195852, 195853]] SymmetricSet [symIds=[1197575, 1198301]] 

> <GraphJson>
{
  "graphId": 34894,
  "gVertices": [
    {
      "lstAPs": [
        {
          "id": 1543611,
          "atomPositionNumber": 0,
          "atomPositionNumberInMol": 0,
          "apClass": {
            "rule": "Xlig",
            "subClass": 0,
            "bndTyp": "SINGLE"
          },
          "dirVec": {
            "x": -2.3339,
            "y": -0.0087,
            "z": 0.8172
          }
        },
        {
          "id": 1543612,
          "atomPositionNumber": 0,
          "atomPositionNumberInMol": 0,
          "apClass": {
            "rule": "Xlig",
            "subClass": 0,
            "bndTyp": "SINGLE"
          },
          "dirVec": {
            "x": 2.336,
            "y": -5.0E-4,
            "z": 0.829
          }
        },
        {
          "id": 1543613,
          "atomPositionNumber": 0,
          "atomPositionNumberInMol": 0,
          "apClass": {
            "rule": "scaff",
            "subClass": 0,
            "bndTyp": "SINGLE"
          },
          "dirVec": {
            "x": -0.0095,
            "y": 0.0046,
            "z": -1.7113
          }
        }
      ],
      "lstSymAPs": [
        {
          "symIds": [
            0,
            1
          ]
        }
      ],
      "mol": {
        "atoms": [
          {
            "elSymbol": "Pt",
            "p3d": {
              "x": -0.0098,
              "y": 0.0049,
              "z": 0.6289
            }
          },
          {
            "elSymbol": "C",
            "p3d": {
              "x": -6.0E-4,
              "y": 0.0016,
              "z": 2.5609
            }
          },
          {
            "elSymbol": "O",
            "p3d": {
              "x": 0.0025,
              "y": -0.0041,
              "z": 3.6974
            }
          },
          {
            "elSymbol": "Du",
            "p3d": {
              "x": -0.007,
              "y": 1.0013,
              "z": 0.6372
            }
          },
          {
            "elSymbol": "Du",
            "p3d": {
              "x": -0.0014,
              "y": 0.9902,
              "z": 2.5698
            }
          }
        ],
        "bonds": [
          {
            "atomIds": [
              1,
              2
            ],
            "bo": "TRIPLE"
          },
          {
            "atomIds": [
              0,
              1
            ],
            "bo": "SINGLE"
          },
          {
            "atomIds": [
              3,
              0
            ],
            "bo": "SINGLE"
          },
          {
            "atomIds": [
              4,
              1
            ],
            "bo": "SINGLE"
          }
        ]
      },
      "vertexId": 195844,
      "buildingBlockId": 0,
      "buildingBlockType": "SCAFFOLD",
      "isRCV": false,
      "properties": {
        "ATTACHMENT_POINTS": "1#Xlig:0:SINGLE:-2.3339%-0.0087%0.8172,Xlig:0:SINGLE:2.3360%-0.0005%0.8290,scaff:0:SINGLE:-0.0095%0.0046%-1.7113 "
      },
      "uniquefyingPropertyKeys": [],
      "allowedMutationTypes": [
        "DELETE",
        "EXTEND",
        "CHANGEBRANCH",
        "CHANGELINK",
        "ADDLINK",
        "DELETELINK",
        "DELETECHAIN"
      ],
      "vertexType": "MolecularFragment"
    },
    {
      "lstAPs": [
        {
          "id": 1543614,
          "atomPositionNumber": 0,
          "atomPositionNumberInMol": 5,
          "apClass": {
            "rule": "LPhospholeSubR",
            "subClass": 0,
            "bndTyp": "SINGLE"
          },
          "dirVec": {
            "x": -0.957928699128247,
            "y": -1.2389867054478398,
            "z": -2.7146353932890195
          }
        },
        {
          "id": 1543615,
          "atomPositionNumber": 0,
          "atomPositionNumberInMol": 5,
          "apClass": {
            "rule": "MPhosphole",
            "subClass": 1,
            "bndTyp": "SINGLE"
          },
          "dirVec": {
            "x": -0.009809425383735727,
            "y": 0.004909425383735812,
            "z": 0.7024242767279409
          }
        },
        {
          "id": 1543616,
          "atomPositionNumber": 1,
          "atomPositionNumberInMol": 6,
          "apClass": {
            "rule": "LPhospholeSubAlpha",
            "subClass": 0,
            "bndTyp": "SINGLE"
          },
          "dirVec": {
            "x": 2.5931089868169965,
            "y": -1.0815202663168948,
            "z": -2.460516221355717
          }
        },
        {
          "id": 1543617,
          "atomPositionNumber": 2,
          "atomPositionNumberInMol": 7,
          "apClass": {
            "rule": "LPhospholeSubBeta",
            "subClass": 0,
            "bndTyp": "SINGLE"
          },
          "dirVec": {
            "x": 3.0768132024617056,
            "y": 1.7083038994768367,
            "z": -3.8099260796718815
          }
        },
        {
          "id": 1543618,
          "atomPositionNumber": 3,
          "atomPositionNumberInMol": 8,
          "apClass": {
            "rule": "LPhospholeSubBeta",
            "subClass": 0,
            "bndTyp": "SINGLE"
          },
          "dirVec": {
            "x": 0.635419563843959,
            "y": 3.49095505570571,
            "z": -3.7392781744469774
          }
        },
        {
          "id": 1543619,
          "atomPositionNumber": 4,
          "atomPositionNumberInMol": 9,
          "apClass": {
            "rule": "LPhospholeSubAlpha",
            "subClass": 0,
            "bndTyp": "SINGLE"
          },
          "dirVec": {
            "x": -1.8432285744872703,
            "y": 2.170253200783081,
            "z": -2.364409505536723
          }
        }
      ],
      "lstSymAPs": [
        {
          "symIds": [
            2,
            5
          ]
        },
        {
          "symIds": [
            3,
            4
          ]
        }
      ],
      "mol": {
        "atoms": [
          {
            "elSymbol": "P",
            "p3d": {
              "x": -0.00949057461626427,
              "y": 0.004590574616264188,
              "z": -1.7848242767279412
            }
          },
          {
            "elSymbol": "C",
            "p3d": {
              "x": 1.6237935144381006,
              "y": 0.06110197376388202,
              "z": -2.565184370664216
            }
          },
          {
            "elSymbol": "C",
            "p3d": {
              "x": 1.7807489251800075,
              "y": 1.251602683219663,
              "z": -3.1438579313390767
            }
          },
          {
            "elSymbol": "C",
            "p3d": {
              "x": 0.5800947529651779,
              "y": 2.13213259884702,
              "z": -3.129588158096259
            }
          },
          {
            "elSymbol": "C",
            "p3d": {
              "x": -0.48208517386874467,
              "y": 1.5859958497483213,
              "z": -2.537539169992243
            }
          }
        ],
        "bonds": [
          {
            "atomIds": [
              1,
              0
            ],
            "bo": "SINGLE"
          },
          {
            "atomIds": [
              2,
              1
            ],
            "bo": "DOUBLE"
          },
          {
            "atomIds": [
              3,
              2
            ],
            "bo": "SINGLE"
          },
          {
            "atomIds": [
              4,
              0
            ],
            "bo": "SINGLE"
          },
          {
            "atomIds": [
              3,
              4
            ],
            "bo": "DOUBLE"
          }
        ]
      },
      "vertexId": 195845,
      "buildingBlockId": 48,
      "buildingBlockType": "FRAGMENT",
      "isRCV": false,
      "properties": {
        "ATTACHMENT_POINTS": "1#LPhospholeSubR:0:SINGLE:-0.9579%-1.2390%-2.7146,MPhosphole:1:SINGLE:-0.0098%0.0049%0.7024 2#LPhospholeSubAlpha:0:SINGLE:2.5931%-1.0815%-2.4605 3#LPhospholeSubBeta:0:SINGLE:3.0768%1.7083%-3.8099 4#LPhospholeSubBeta:0:SINGLE:0.6354%3.4910%-3.7393 5#LPhospholeSubAlpha:0:SINGLE:-1.8432%2.1703%-2.3644 "
      },
      "uniquefyingPropertyKeys": [],
      "allowedMutationTypes": [
        "DELETE",
        "EXTEND",
        "CHANGEBRANCH",
        "CHANGELINK",
        "ADDLINK",
        "DELETELINK",
        "DELETECHAIN"
      ],
      "vertexType": "MolecularFragment"
    },
    {
      "lstAPs": [
        {
          "id": 1543620,
          "atomPositionNumber": 0,
          "atomPositionNumberInMol": 10,
          "apClass": {
            "rule": "ATplus",
            "subClass": 0,
            "bndTyp": "ANY"
          },
          "dirVec": {
            "x": -1.8432285744872703,
            "y": 2.170253200783081,
            "z": -2.364409505536723
          }
        }
      ],
      "lstSymAPs": [],
      "mol": {
        "atoms": [
          {
            "elSymbol": "ATP",
            "p3d": {
              "x": -1.8623882938320793,
              "y": 2.1784773209352126,
              "z": -2.361972498694004
            }
          }
        ],
        "bonds": []
      },
      "vertexId": 195846,
      "buildingBlockId": 77,
      "buildingBlockType": "FRAGMENT",
      "isRCV": true,
      "properties": {
        "ATTACHMENT_POINTS": "1#ATplus:0:ANY:-1.8432%2.1703%-2.3644 "
      },
      "uniquefyingPropertyKeys": [],
      "allowedMutationTypes": [
        "DELETE",
        "EXTEND",
        "CHANGEBRANCH",
        "CHANGELINK",
        "ADDLINK",
        "DELETELINK",
        "DELETECHAIN"
      ],
      "vertexType": "MolecularFragment"
    },
    {
      "lstAPs": [
        {
          "id": 1543621,
          "atomPositionNumber": 0,
          "atomPositionNumberInMol": 11,
          "apClass": {
            "rule": "ATplus",
            "subClass": 0,
            "bndTyp": "ANY"
          },
          "dirVec": {
            "x": 2.5931089868169965,
            "y": -1.0815202663168948,
            "z": -2.460516221355717
          }
        }
      ],
      "lstSymAPs": [],
      "mol": {
        "atoms": [
          {
            "elSymbol": "ATP",
            "p3d": {
              "x": 2.606655933348593,
              "y": -1.0974893113112951,
              "z": -2.459053401600283
            }
          }
        ],
        "bonds": []
      },
      "vertexId": 195847,
      "buildingBlockId": 77,
      "buildingBlockType": "FRAGMENT",
      "isRCV": true,
      "properties": {
        "ATTACHMENT_POINTS": "1#ATplus:0:ANY:2.5931%-1.0815%-2.4605 "
      },
      "uniquefyingPropertyKeys": [],
      "allowedMutationTypes": [
        "DELETE",
        "EXTEND",
        "CHANGEBRANCH",
        "CHANGELINK",
        "ADDLINK",
        "DELETELINK",
        "DELETECHAIN"
      ],
      "vertexType": "MolecularFragment"
    },
    {
      "lstAPs": [
        {
          "id": 1543622,
          "atomPositionNumber": 0,
          "atomPositionNumberInMol": 31,
          "apClass": {
            "rule": "Xlig",
            "subClass": 1,
            "bndTyp": "SINGLE"
          },
          "dirVec": {
            "x": -0.1753,
            "y": 0.0948,
            "z": -0.4464
          }
        },
        {
          "id": 1543623,
          "atomPositionNumber": 0,
          "atomPositionNumberInMol": 31,
          "apClass": {
            "rule": "bridge",
            "subClass": 1,
            "bndTyp": "SINGLE"
          },
          "dirVec": {
            "x": -0.5345,
            "y": 2.7646,
            "z": 0.48009999999999997
          }
        }
      ],
      "lstSymAPs": [],
      "mol": {
        "atoms": [
          {
            "elSymbol": "O",
            "p3d": {
              "x": -0.3534,
              "y": 2.1044,
              "z": -0.7339
            }
          }
        ],
        "bonds": []
      },
      "vertexId": 195848,
      "buildingBlockId": 72,
      "buildingBlockType": "FRAGMENT",
      "isRCV": false,
      "properties": {
        "ATTACHMENT_POINTS": "1#Xlig:1:SINGLE:-0.1753%0.0948%-0.4464,bridge:1:SINGLE:-0.5345%2.7646%0.4801 "
      },
      "uniquefyingPropertyKeys": [],
      "allowedMutationTypes": [
        "DELETE",
        "EXTEND",
        "CHANGEBRANCH",
        "CHANGELINK",
        "ADDLINK",
        "DELETELINK",
        "DELETECHAIN"
      ],
      "vertexType": "MolecularFragment"
    },
    {
      "lstAPs": [
        {
          "id": 1543624,
          "atomPositionNumber": 0,
          "atomPositionNumberInMol": 39,
          "apClass": {
            "rule": "Xlig",
            "subClass": 1,
            "bndTyp": "SINGLE"
          },
          "dirVec": {
            "x": -0.1753,
            "y": 0.0948,
            "z": -0.4464
          }
        },
        {
          "id": 1543625,
          "atomPositionNumber": 0,
          "atomPositionNumberInMol": 39,
          "apClass": {
            "rule": "bridge",
            "subClass": 1,
            "bndTyp": "SINGLE"
          },
          "dirVec": {
            "x": -0.5345,
            "y": 2.7646,
            "z": 0.48009999999999997
          }
        }
      ],
      "lstSymAPs": [],
      "mol": {
        "atoms": [
          {
            "elSymbol": "O",
            "p3d": {
              "x": -0.3534,
              "y": 2.1044,
              "z": -0.7339
            }
          }
        ],
        "bonds": []
      },
      "vertexId": 195849,
      "buildingBlockId": 72,
      "buildingBlockType": "FRAGMENT",
      "isRCV": false,
      "properties": {
        "ATTACHMENT_POINTS": "1#Xlig:1:SINGLE:-0.1753%0.0948%-0.4464,bridge:1:SINGLE:-0.5345%2.7646%0.4801 "
      },
      "uniquefyingPropertyKeys": [],
      "allowedMutationTypes": [
        "DELETE",
        "EXTEND",
        "CHANGEBRANCH",
        "CHANGELINK",
        "ADDLINK",
        "DELETELINK",
        "DELETECHAIN"
      ],
      "vertexType": "MolecularFragment"
    },
    {
      "lstAPs": [
        {
          "id": 1543626,
          "atomPositionNumber": 1,
          "atomPositionNumberInMol": 33,
          "apClass": {
            "rule": "bridge",
            "subClass": 0,
            "bndTyp": "SINGLE"
          },
          "dirVec": {
            "x": 0.4112,
            "y": -1.2101,
            "z": -0.19930000000000003
          }
        },
        {
          "id": 1543627,
          "atomPositionNumber": 0,
          "atomPositionNumberInMol": 32,
          "apClass": {
            "rule": "bridge",
            "subClass": 0,
            "bndTyp": "SINGLE"
          },
          "dirVec": {
            "x": 0.41179999999999994,
            "y": 1.21,
            "z": -0.19930000000000003
          }
        }
      ],
      "lstSymAPs": [
        {
          "symIds": [
            0,
            1
          ]
        }
      ],
      "mol": {
        "atoms": [
          {
            "elSymbol": "C",
            "p3d": {
              "x": -1.0414,
              "y": 0.7696,
              "z": 0.0732
            }
          },
          {
            "elSymbol": "C",
            "p3d": {
              "x": -1.0417,
              "y": -0.7693,
              "z": 0.0732
            }
          },
          {
            "elSymbol": "H",
            "p3d": {
              "x": -1.6983,
              "y": 1.1431,
              "z": -0.7123
            }
          },
          {
            "elSymbol": "H",
            "p3d": {
              "x": -1.369,
              "y": 1.143,
              "z": 1.0434
            }
          },
          {
            "elSymbol": "H",
            "p3d": {
              "x": -1.3695,
              "y": -1.1425,
              "z": 1.0434
            }
          },
          {
            "elSymbol": "H",
            "p3d": {
              "x": -1.6988,
              "y": -1.1424,
              "z": -0.7123
            }
          }
        ],
        "bonds": [
          {
            "atomIds": [
              0,
              1
            ],
            "bo": "SINGLE"
          },
          {
            "atomIds": [
              0,
              2
            ],
            "bo": "SINGLE"
          },
          {
            "atomIds": [
              0,
              3
            ],
            "bo": "SINGLE"
          },
          {
            "atomIds": [
              1,
              4
            ],
            "bo": "SINGLE"
          },
          {
            "atomIds": [
              1,
              5
            ],
            "bo": "SINGLE"
          }
        ]
      },
      "vertexId": 195850,
      "buildingBlockId": 65,
      "buildingBlockType": "FRAGMENT",
      "isRCV": false,
      "properties": {
        "ATTACHMENT_POINTS": "1#bridge:0:SINGLE:0.4118%1.2100%-0.1993 2#bridge:0:SINGLE:0.4112%-1.2101%-0.1993 "
      },
      "uniquefyingPropertyKeys": [],
      "allowedMutationTypes": [
        "DELETE",
        "EXTEND",
        "CHANGEBRANCH",
        "CHANGELINK",
        "ADDLINK",
        "DELETELINK",
        "DELETECHAIN"
      ],
      "vertexType": "MolecularFragment"
    },
    {
      "lstAPs": [
        {
          "id": 1543628,
          "atomPositionNumber": 1,
          "atomPositionNumberInMol": 41,
          "apClass": {
            "rule": "bridge",
            "subClass": 0,
            "bndTyp": "SINGLE"
          },
          "dirVec": {
            "x": 0.4112,
            "y": -1.2101,
            "z": -0.19930000000000003
          }
        },
        {
          "id": 1543629,
          "atomPositionNumber": 0,
          "atomPositionNumberInMol": 40,
          "apClass": {
            "rule": "bridge",
            "subClass": 0,
            "bndTyp": "SINGLE"
          },
          "dirVec": {
            "x": 0.41179999999999994,
            "y": 1.21,
            "z": -0.19930000000000003
          }
        }
      ],
      "lstSymAPs": [
        {
          "symIds": [
            0,
            1
          ]
        }
      ],
      "mol": {
        "atoms": [
          {
            "elSymbol": "C",
            "p3d": {
              "x": -1.0414,
              "y": 0.7696,
              "z": 0.0732
            }
          },
          {
            "elSymbol": "C",
            "p3d": {
              "x": -1.0417,
              "y": -0.7693,
              "z": 0.0732
            }
          },
          {
            "elSymbol": "H",
            "p3d": {
              "x": -1.6983,
              "y": 1.1431,
              "z": -0.7123
            }
          },
          {
            "elSymbol": "H",
            "p3d": {
              "x": -1.369,
              "y": 1.143,
              "z": 1.0434
            }
          },
          {
            "elSymbol": "H",
            "p3d": {
              "x": -1.3695,
              "y": -1.1425,
              "z": 1.0434
            }
          },
          {
            "elSymbol": "H",
            "p3d": {
              "x": -1.6988,
              "y": -1.1424,
              "z": -0.7123
            }
          }
        ],
        "bonds": [
          {
            "atomIds": [
              0,
              1
            ],
            "bo": "SINGLE"
          },
          {
            "atomIds": [
              0,
              2
            ],
            "bo": "SINGLE"
          },
          {
            "atomIds": [
              0,
              3
            ],
            "bo": "SINGLE"
          },
          {
            "atomIds": [
              1,
              4
            ],
            "bo": "SINGLE"
          },
          {
            "atomIds": [
              1,
              5
            ],
            "bo": "SINGLE"
          }
        ]
      },
      "vertexId": 195851,
      "buildingBlockId": 65,
      "buildingBlockType": "FRAGMENT",
      "isRCV": false,
      "properties": {
        "ATTACHMENT_POINTS": "1#bridge:0:SINGLE:0.4118%1.2100%-0.1993 2#bridge:0:SINGLE:0.4112%-1.2101%-0.1993 "
      },
      "uniquefyingPropertyKeys": [],
      "allowedMutationTypes": [
        "DELETE",
        "EXTEND",
        "CHANGEBRANCH",
        "CHANGELINK",
        "ADDLINK",
        "DELETELINK",
        "DELETECHAIN"
      ],
      "vertexType": "MolecularFragment"
    },
    {
      "lstAPs": [
        {
          "id": 1543630,
          "atomPositionNumber": 0,
          "atomPositionNumberInMol": 46,
          "apClass": {
            "rule": "ATminus",
            "subClass": 0,
            "bndTyp": "ANY"
          },
          "dirVec": {
            "x": 0.0109,
            "y": -0.0071,
            "z": 0.0026
          }
        }
      ],
      "lstSymAPs": [],
      "mol": {
        "atoms": [
          {
            "elSymbol": "ATM",
            "p3d": {
              "x": -0.0096,
              "y": 0.0045,
              "z": -0.0011
            }
          }
        ],
        "bonds": []
      },
      "vertexId": 195852,
      "buildingBlockId": 78,
      "buildingBlockType": "FRAGMENT",
      "isRCV": true,
      "properties": {
        "ATTACHMENT_POINTS": "1#ATminus:0:ANY:0.0109%-0.0071%0.0026 "
      },
      "uniquefyingPropertyKeys": [],
      "allowedMutationTypes": [
        "DELETE",
        "EXTEND",
        "CHANGEBRANCH",
        "CHANGELINK",
        "ADDLINK",
        "DELETELINK",
        "DELETECHAIN"
      ],
      "vertexType": "MolecularFragment"
    },
    {
      "lstAPs": [
        {
          "id": 1543631,
          "atomPositionNumber": 0,
          "atomPositionNumberInMol": 38,
          "apClass": {
            "rule": "ATminus",
            "subClass": 0,
            "bndTyp": "ANY"
          },
          "dirVec": {
            "x": 0.0109,
            "y": -0.0071,
            "z": 0.0026
          }
        }
      ],
      "lstSymAPs": [],
      "mol": {
        "atoms": [
          {
            "elSymbol": "ATM",
            "p3d": {
              "x": -0.0096,
              "y": 0.0045,
              "z": -0.0011
            }
          }
        ],
        "bonds": []
      },
      "vertexId": 195853,
      "buildingBlockId": 78,
      "buildingBlockType": "FRAGMENT",
      "isRCV": true,
      "properties": {
        "ATTACHMENT_POINTS": "1#ATminus:0:ANY:0.0109%-0.0071%0.0026 "
      },
      "uniquefyingPropertyKeys": [],
      "allowedMutationTypes": [
        "DELETE",
        "EXTEND",
        "CHANGEBRANCH",
        "CHANGELINK",
        "ADDLINK",
        "DELETELINK",
        "DELETECHAIN"
      ],
      "vertexType": "MolecularFragment"
    },
    {
      "lstAPs": [
        {
          "id": 1543704,
          "atomPositionNumber": 0,
          "atomPositionNumberInMol": 12,
          "apClass": {
            "rule": "SubRS",
            "subClass": 1,
            "bndTyp": "SINGLE"
          },
          "dirVec": {
            "x": 0.2865,
            "y": 0.3959,
            "z": -0.6387
          }
        }
      ],
      "lstSymAPs": [],
      "mol": {
        "atoms": [
          {
            "elSymbol": "C",
            "p3d": {
              "x": 0.3969,
              "y": -0.0496,
              "z": 0.8235
            }
          },
          {
            "elSymbol": "H",
            "p3d": {
              "x": -0.6146,
              "y": -0.163,
              "z": 1.2402
            }
          },
          {
            "elSymbol": "H",
            "p3d": {
              "x": 0.9335,
              "y": -0.9979,
              "z": 0.8998
            }
          },
          {
            "elSymbol": "H",
            "p3d": {
              "x": 0.9252,
              "y": 0.7237,
              "z": 1.3995
            }
          }
        ],
        "bonds": [
          {
            "atomIds": [
              0,
              1
            ],
            "bo": "SINGLE"
          },
          {
            "atomIds": [
              0,
              2
            ],
            "bo": "SINGLE"
          },
          {
            "atomIds": [
              0,
              3
            ],
            "bo": "SINGLE"
          }
        ]
      },
      "vertexId": 1197575,
      "buildingBlockId": 23,
      "buildingBlockType": "FRAGMENT",
      "isRCV": false,
      "properties": {
        "ATTACHMENT_POINTS": "1#SubRS:1:SINGLE:0.2865%0.3959%-0.6387 "
      },
      "uniquefyingPropertyKeys": [],
      "allowedMutationTypes": [
        "DELETE",
        "EXTEND",
        "CHANGEBRANCH",
        "CHANGELINK",
        "ADDLINK",
        "DELETELINK",
        "DELETECHAIN"
      ],
      "vertexType": "MolecularFragment"
    },
    {
      "lstAPs": [
        {
          "id": 1543705,
          "atomPositionNumber": 0,
          "atomPositionNumberInMol": 16,
          "apClass": {
            "rule": "SubRS",
            "subClass": 1,
            "bndTyp": "SINGLE"
          },
          "dirVec": {
            "x": 0.2865,
            "y": 0.3959,
            "z": -0.6387
          }
        }
      ],
      "lstSymAPs": [],
      "mol": {
        "atoms": [
          {
            "elSymbol": "C",
            "p3d": {
              "x": 0.3969,
              "y": -0.0496,
              "z": 0.8235
            }
          },
          {
            "elSymbol": "H",
            "p3d": {
              "x": -0.6146,
              "y": -0.163,
              "z": 1.2402
            }
          },
          {
            "elSymbol": "H",
            "p3d": {
              "x": 0.9335,
              "y": -0.9979,
              "z": 0.8998
            }
          },
          {
            "elSymbol": "H",
            "p3d": {
              "x": 0.9252,
              "y": 0.7237,
              "z": 1.3995
            }
          }
        ],
        "bonds": [
          {
            "atomIds": [
              0,
              1
            ],
            "bo": "SINGLE"
          },
          {
            "atomIds": [
              0,
              2
            ],
            "bo": "SINGLE"
          },
          {
            "atomIds": [
              0,
              3
            ],
            "bo": "SINGLE"
          }
        ]
      },
      "vertexId": 1198301,
      "buildingBlockId": 23,
      "buildingBlockType": "FRAGMENT",
      "isRCV": false,
      "properties": {
        "ATTACHMENT_POINTS": "1#SubRS:1:SINGLE:0.2865%0.3959%-0.6387 "
      },
      "uniquefyingPropertyKeys": [],
      "allowedMutationTypes": [
        "DELETE",
        "EXTEND",
        "CHANGEBRANCH",
        "CHANGELINK",
        "ADDLINK",
        "DELETELINK",
        "DELETECHAIN"
      ],
      "vertexType": "MolecularFragment"
    },
    {
      "lstAPs": [
        {
          "id": 1543706,
          "atomPositionNumber": 0,
          "atomPositionNumberInMol": 20,
          "apClass": {
            "rule": "SubArS",
            "subClass": 1,
            "bndTyp": "SINGLE"
          },
          "dirVec": {
            "x": 0.2973,
            "y": 0.3873,
            "z": -0.6389
          }
        }
      ],
      "lstSymAPs": [],
      "mol": {
        "atoms": [
          {
            "elSymbol": "C",
            "p3d": {
              "x": 1.6995,
              "y": 0.5593,
              "z": -1.2083
            }
          },
          {
            "elSymbol": "C",
            "p3d": {
              "x": 4.2563,
              "y": 0.8754,
              "z": -2.2592
            }
          },
          {
            "elSymbol": "C",
            "p3d": {
              "x": 2.3334,
              "y": 1.79,
              "z": -1.1338
            }
          },
          {
            "elSymbol": "C",
            "p3d": {
              "x": 2.3422,
              "y": -0.5107,
              "z": -1.8125
            }
          },
          {
            "elSymbol": "C",
            "p3d": {
              "x": 3.612,
              "y": -0.3527,
              "z": -2.3321
            }
          },
          {
            "elSymbol": "C",
            "p3d": {
              "x": 3.6062,
              "y": 1.9513,
              "z": -1.6526
            }
          },
          {
            "elSymbol": "H",
            "p3d": {
              "x": 1.833,
              "y": 2.6461,
              "z": -0.6488
            }
          },
          {
            "elSymbol": "H",
            "p3d": {
              "x": 1.8361,
              "y": -1.4773,
              "z": -1.887
            }
          },
          {
            "elSymbol": "H",
            "p3d": {
              "x": 4.115,
              "y": -1.2043,
              "z": -2.8152
            }
          },
          {
            "elSymbol": "H",
            "p3d": {
              "x": 4.1097,
              "y": 2.9214,
              "z": -1.5842
            }
          },
          {
            "elSymbol": "H",
            "p3d": {
              "x": 5.2498,
              "y": 0.9926,
              "z": -2.665
            }
          }
        ],
        "bonds": [
          {
            "atomIds": [
              0,
              3
            ],
            "bo": "SINGLE"
          },
          {
            "atomIds": [
              3,
              4
            ],
            "bo": "DOUBLE"
          },
          {
            "atomIds": [
              1,
              4
            ],
            "bo": "SINGLE"
          },
          {
            "atomIds": [
              1,
              5
            ],
            "bo": "DOUBLE"
          },
          {
            "atomIds": [
              2,
              5
            ],
            "bo": "SINGLE"
          },
          {
            "atomIds": [
              0,
              2
            ],
            "bo": "DOUBLE"
          },
          {
            "atomIds": [
              4,
              8
            ],
            "bo": "SINGLE"
          },
          {
            "atomIds": [
              5,
              9
            ],
            "bo": "SINGLE"
          },
          {
            "atomIds": [
              1,
              10
            ],
            "bo": "SINGLE"
          },
          {
            "atomIds": [
              2,
              6
            ],
            "bo": "SINGLE"
          },
          {
            "atomIds": [
              3,
              7
            ],
            "bo": "SINGLE"
          }
        ]
      },
      "vertexId": 1197571,
      "buildingBlockId": 28,
      "buildingBlockType": "FRAGMENT",
      "isRCV": false,
      "properties": {
        "ATTACHMENT_POINTS": "1#SubArS:1:SINGLE:0.2973%0.3873%-0.6389 "
      },
      "uniquefyingPropertyKeys": [],
      "allowedMutationTypes": [
        "DELETE",
        "EXTEND",
        "CHANGEBRANCH",
        "CHANGELINK",
        "ADDLINK",
        "DELETELINK",
        "DELETECHAIN"
      ],
      "vertexType": "MolecularFragment"
    }
  ],
  "gEdges": [
    {
      "srcAPID": 1543613,
      "trgAPID": 1543615,
      "bondType": "SINGLE"
    },
    {
      "srcAPID": 1543619,
      "trgAPID": 1543620,
      "bondType": "SINGLE"
    },
    {
      "srcAPID": 1543616,
      "trgAPID": 1543621,
      "bondType": "SINGLE"
    },
    {
      "srcAPID": 1543612,
      "trgAPID": 1543622,
      "bondType": "SINGLE"
    },
    {
      "srcAPID": 1543611,
      "trgAPID": 1543624,
      "bondType": "SINGLE"
    },
    {
      "srcAPID": 1543623,
      "trgAPID": 1543626,
      "bondType": "SINGLE"
    },
    {
      "srcAPID": 1543625,
      "trgAPID": 1543628,
      "bondType": "SINGLE"
    },
    {
      "srcAPID": 1543629,
      "trgAPID": 1543630,
      "bondType": "SINGLE"
    },
    {
      "srcAPID": 1543627,
      "trgAPID": 1543631,
      "bondType": "SINGLE"
    },
    {
      "srcAPID": 1543617,
      "trgAPID": 1543704,
      "bondType": "SINGLE"
    },
    {
      "srcAPID": 1543618,
      "trgAPID": 1543705,
      "bondType": "SINGLE"
    },
    {
      "srcAPID": 1543614,
      "trgAPID": 1543706,
      "bondType": "SINGLE"
    }
  ],
  "gRings": [
    {
      "vertices": [
        195846,
        195845,
        195844,
        195848,
        195850,
        195853
      ],
      "bndTyp": "SINGLE"
    },
    {
      "vertices": [
        195847,
        195845,
        195844,
        195849,
        195851,
        195852
      ],
      "bndTyp": "SINGLE"
    }
  ],
  "symVertices": [
    {
      "symIds": [
        195846,
        195847
      ]
    },
    {
      "symIds": [
        195848,
        195849
      ]
    },
    {
      "symIds": [
        195850,
        195851
      ]
    },
    {
      "symIds": [
        195852,
        195853
      ]
    },
    {
      "symIds": [
        1197575,
        1198301
      ]
    }
  ]
}

> <SMILES>
[Pt]12(C#O)[P]3(C(=C(C(=C3C(C([H])([H])O1)([H])[H])C([H])([H])[H])C([H])([H])[H])C(C([H])([H])O2)([H])[H])C=4C(=C(C(=C(C4[H])[H])[H])[H])[H]

$$$$
