M00001264
  CDK     05032207553D

 47 51  0  0  0  0  0  0  0  0999 V2000
   -2.4649    0.2055   -0.4124 Pt  0  0  0  0  0  0  0  0  0  0  0  0
   -4.4356    0.3236   -0.2409 C   0  0  0  0  0  0  0  0  0  0  0  0
   -5.5648    0.3996   -0.1213 O   0  0  0  0  0  0  0  0  0  0  0  0
   -0.2193    0.2269   -0.3973 P   0  0  0  0  0  0  0  0  0  0  0  0
    0.6293    0.2625   -1.9155 N   0  0  0  0  0  0  0  0  0  0  0  0
    0.0672   -0.1281   -3.1603 C   0  0  0  0  0  0  0  0  0  0  0  0
   -0.9567   -0.4881   -3.2492 H   0  0  0  0  0  0  0  0  0  0  0  0
    1.0444    0.0313   -4.1238 C   0  0  0  0  0  0  0  0  0  0  0  0
    0.9487   -0.1725   -5.1734 H   0  0  0  0  0  0  0  0  0  0  0  0
    2.2316    0.5320   -3.4860 C   0  0  0  0  0  0  0  0  0  0  0  0
    3.1511    0.7551   -3.9926 H   0  0  0  0  0  0  0  0  0  0  0  0
    1.9738    0.6728   -2.1354 C   0  0  0  0  0  0  0  0  0  0  0  0
    2.6129    1.0256   -1.3499 H   0  0  0  0  0  0  0  0  0  0  0  0
   -2.1791    3.0138    0.5279 S   0  0  0  0  0  0  0  0  0  0  0  0
   -2.0183    2.1542   -0.8549 O   0  0  0  0  0  0  0  0  0  0  0  0
   -3.4524    2.5561    1.0751 O   0  0  0  0  0  0  0  0  0  0  0  0
   -1.8956    4.4022    0.3183 O   0  0  0  0  0  0  0  0  0  0  0  0
    0.3015    1.7470    0.6011 C   0  0  2  0  0  0  0  0  0  0  0  0
    1.4792    1.5893    1.5744 C   0  0  0  0  0  0  0  0  0  0  0  0
    1.2287    2.6531    2.6678 C   0  0  0  0  0  0  0  0  0  0  0  0
   -0.2229    3.1519    2.4994 C   0  0  0  0  0  0  0  0  0  0  0  0
   -0.8806    2.2146    1.4706 C   0  0  1  0  0  0  0  0  0  0  0  0
    0.5638    2.5541   -0.1435 H   0  0  0  0  0  0  0  0  0  0  0  0
    1.5320    0.5860    2.0395 H   0  0  0  0  0  0  0  0  0  0  0  0
    2.4494    1.7533    1.0731 H   0  0  0  0  0  0  0  0  0  0  0  0
    1.9397    3.4927    2.5726 H   0  0  0  0  0  0  0  0  0  0  0  0
    1.3878    2.2267    3.6728 H   0  0  0  0  0  0  0  0  0  0  0  0
   -0.2271    4.2056    2.1492 H   0  0  0  0  0  0  0  0  0  0  0  0
   -0.7677    3.1429    3.4598 H   0  0  0  0  0  0  0  0  0  0  0  0
   -1.3356    1.3557    2.0374 H   0  0  0  0  0  0  0  0  0  0  0  0
   -1.9616   -2.7811   -0.8600 S   0  0  0  0  0  0  0  0  0  0  0  0
   -2.6911   -1.7612    0.1713 O   0  0  0  0  0  0  0  0  0  0  0  0
   -2.1386   -2.0947   -2.1448 O   0  0  0  0  0  0  0  0  0  0  0  0
   -2.3942   -4.1288   -0.6379 O   0  0  0  0  0  0  0  0  0  0  0  0
    0.1550   -1.4355    0.4427 C   0  0  2  0  0  0  0  0  0  0  0  0
    1.6029   -1.7426    0.8513 C   0  0  0  0  0  0  0  0  0  0  0  0
    1.6569   -3.2866    0.9282 C   0  0  0  0  0  0  0  0  0  0  0  0
    0.4128   -3.8189    0.1818 C   0  0  0  0  0  0  0  0  0  0  0  0
   -0.2206   -2.5915   -0.5016 C   0  0  1  0  0  0  0  0  0  0  0  0
   -0.4964   -1.4773    1.3635 H   0  0  0  0  0  0  0  0  0  0  0  0
    2.3414   -1.3818    0.1111 H   0  0  0  0  0  0  0  0  0  0  0  0
    1.8670   -1.2776    1.8184 H   0  0  0  0  0  0  0  0  0  0  0  0
    1.6585   -3.6318    1.9763 H   0  0  0  0  0  0  0  0  0  0  0  0
    2.5867   -3.6693    0.4746 H   0  0  0  0  0  0  0  0  0  0  0  0
   -0.2918   -4.3030    0.8863 H   0  0  0  0  0  0  0  0  0  0  0  0
    0.6817   -4.5965   -0.5549 H   0  0  0  0  0  0  0  0  0  0  0  0
    0.3112   -2.4673   -1.4889 H   0  0  0  0  0  0  0  0  0  0  0  0
  2  3  3  0  0  0  0
  1  2  1  0  0  0  0
  1  4  1  0  0  0  0
  5  6  1  0  0  0  0
  6  7  1  0  0  0  0
  8  6  2  0  0  0  0
  9  8  1  0  0  0  0
 10  8  1  0  0  0  0
 11 10  1  0  0  0  0
 12  5  1  0  0  0  0
 13 12  1  0  0  0  0
 10 12  2  0  0  0  0
  4  5  1  0  0  0  0
 14 15  1  0  0  0  0
 16 14  2  0  0  0  0
 17 14  2  0  0  0  0
  1 15  1  0  0  0  0
 18 19  1  0  0  0  0
 19 20  1  0  0  0  0
 20 21  1  0  0  0  0
 21 22  1  0  0  0  0
 18 22  1  0  0  0  0
 18 23  1  0  0  0  0
 19 24  1  0  0  0  0
 19 25  1  0  0  0  0
 20 26  1  0  0  0  0
 20 27  1  0  0  0  0
 21 28  1  0  0  0  0
 21 29  1  0  0  0  0
 22 30  1  0  0  0  0
 14 22  1  0  0  0  0
 31 32  1  0  0  0  0
 33 31  2  0  0  0  0
 34 31  2  0  0  0  0
  1 32  1  0  0  0  0
 35 36  1  0  0  0  0
 36 37  1  0  0  0  0
 37 38  1  0  0  0  0
 38 39  1  0  0  0  0
 35 39  1  0  0  0  0
 35 40  1  0  0  0  0
 36 41  1  0  0  0  0
 36 42  1  0  0  0  0
 37 43  1  0  0  0  0
 37 44  1  0  0  0  0
 38 45  1  0  0  0  0
 38 46  1  0  0  0  0
 39 47  1  0  0  0  0
 31 39  1  0  0  0  0
  4 35  1  0  0  0  0
  4 18  1  0  0  0  0
M  END
> <PM6_ENERGY>
-959.175

> <UID>
KHJCIUMWHTZIRR-VNVGYWSLNA-L

> <FITNESS>
1.13806

> <GCODE>
11580

> <GraphENC>
11580 141616_1_0,141617_4_1,141618_78_1,141619_78_1,141620_77_1,141621_77_1,141622_70_1,141623_70_1,141624_79_1,141625_79_1,430853_10_1, 141616_2_141617_3_SINGLE_scaff:0_MMonoAminoPhosphine:1,141617_1_141618_0_SINGLE_LMonoAminoPhosphineSubR:0_ATplus:0,141617_2_141619_0_SINGLE_LMonoAminoPhosphineSubR:0_ATplus:0,141616_0_141620_0_SINGLE_Xlig:0_Xlig:1,141616_1_141621_0_SINGLE_Xlig:0_Xlig:1,141621_1_141622_1_SINGLE_bridge:1_bridge:0,141620_1_141623_1_SINGLE_bridge:1_bridge:0,141623_0_141624_0_SINGLE_bridge:0_ATminus:0,141622_0_141625_0_SINGLE_bridge:0_ATminus:0,141617_0_430853_0_SINGLE_LMonoAminoPhosphineN:0_LAminoPhosphineCycloN:1, DENOPTIMRing [vertices=[141618_78_1, 141617_4_1, 141616_1_0, 141620_77_1, 141623_70_1, 141624_79_1]] DENOPTIMRing [vertices=[141619_78_1, 141617_4_1, 141616_1_0, 141621_77_1, 141622_70_1, 141625_79_1]] SymmetricSet [symIds=[141618, 141619]] SymmetricSet [symIds=[141620, 141621]] SymmetricSet [symIds=[141622, 141623]] SymmetricSet [symIds=[141624, 141625]] 

> <GraphJson>
{
  "graphId": 11580,
  "gVertices": [
    {
      "lstAPs": [
        {
          "id": 332249,
          "atomPositionNumber": 0,
          "atomPositionNumberInMol": 0,
          "apClass": {
            "rule": "Xlig",
            "subClass": 0,
            "bndTyp": "SINGLE"
          },
          "dirVec": {
            "x": -2.3339,
            "y": -0.0087,
            "z": 0.8172
          }
        },
        {
          "id": 332250,
          "atomPositionNumber": 0,
          "atomPositionNumberInMol": 0,
          "apClass": {
            "rule": "Xlig",
            "subClass": 0,
            "bndTyp": "SINGLE"
          },
          "dirVec": {
            "x": 2.336,
            "y": -5.0E-4,
            "z": 0.829
          }
        },
        {
          "id": 332251,
          "atomPositionNumber": 0,
          "atomPositionNumberInMol": 0,
          "apClass": {
            "rule": "scaff",
            "subClass": 0,
            "bndTyp": "SINGLE"
          },
          "dirVec": {
            "x": -0.0095,
            "y": 0.0046,
            "z": -1.7113
          }
        }
      ],
      "lstSymAPs": [
        {
          "symIds": [
            0,
            1
          ]
        }
      ],
      "mol": {
        "atoms": [
          {
            "elSymbol": "Pt",
            "p3d": {
              "x": -0.0098,
              "y": 0.0049,
              "z": 0.6289
            }
          },
          {
            "elSymbol": "C",
            "p3d": {
              "x": -6.0E-4,
              "y": 0.0016,
              "z": 2.5609
            }
          },
          {
            "elSymbol": "O",
            "p3d": {
              "x": 0.0025,
              "y": -0.0041,
              "z": 3.6974
            }
          },
          {
            "elSymbol": "Du",
            "p3d": {
              "x": -0.007,
              "y": 1.0013,
              "z": 0.6372
            }
          },
          {
            "elSymbol": "Du",
            "p3d": {
              "x": -0.0014,
              "y": 0.9902,
              "z": 2.5698
            }
          }
        ],
        "bonds": [
          {
            "atomIds": [
              1,
              2
            ],
            "bo": "TRIPLE"
          },
          {
            "atomIds": [
              0,
              1
            ],
            "bo": "SINGLE"
          },
          {
            "atomIds": [
              3,
              0
            ],
            "bo": "SINGLE"
          },
          {
            "atomIds": [
              4,
              1
            ],
            "bo": "SINGLE"
          }
        ]
      },
      "vertexId": 141616,
      "buildingBlockId": 0,
      "buildingBlockType": "SCAFFOLD",
      "isRCV": false,
      "properties": {
        "ATTACHMENT_POINTS": "1#Xlig:0:SINGLE:-2.3339%-0.0087%0.8172,Xlig:0:SINGLE:2.3360%-0.0005%0.8290,scaff:0:SINGLE:-0.0095%0.0046%-1.7113 "
      },
      "uniquefyingPropertyKeys": [],
      "allowedMutationTypes": [
        "DELETE",
        "EXTEND",
        "CHANGEBRANCH",
        "CHANGELINK",
        "ADDLINK",
        "DELETELINK",
        "DELETECHAIN"
      ],
      "vertexType": "MolecularFragment"
    },
    {
      "lstAPs": [
        {
          "id": 332252,
          "atomPositionNumber": 0,
          "atomPositionNumberInMol": 5,
          "apClass": {
            "rule": "LMonoAminoPhosphineN",
            "subClass": 0,
            "bndTyp": "SINGLE"
          },
          "dirVec": {
            "x": 1.5576360714278132,
            "y": 0.04489007948791429,
            "z": -2.241202695388179
          }
        },
        {
          "id": 332253,
          "atomPositionNumber": 0,
          "atomPositionNumberInMol": 5,
          "apClass": {
            "rule": "LMonoAminoPhosphineSubR",
            "subClass": 0,
            "bndTyp": "SINGLE"
          },
          "dirVec": {
            "x": -0.7810356757784612,
            "y": -1.5410049186499182,
            "z": -2.385973734275668
          }
        },
        {
          "id": 332254,
          "atomPositionNumber": 0,
          "atomPositionNumberInMol": 5,
          "apClass": {
            "rule": "LMonoAminoPhosphineSubR",
            "subClass": 0,
            "bndTyp": "SINGLE"
          },
          "dirVec": {
            "x": -0.8999787291693976,
            "y": 1.4011327409517724,
            "z": -2.44926553472034
          }
        },
        {
          "id": 332255,
          "atomPositionNumber": 0,
          "atomPositionNumberInMol": 5,
          "apClass": {
            "rule": "MMonoAminoPhosphine",
            "subClass": 1,
            "bndTyp": "SINGLE"
          },
          "dirVec": {
            "x": -0.009798817884168738,
            "y": 0.004898817884168566,
            "z": 0.6196787084387736
          }
        }
      ],
      "lstSymAPs": [
        {
          "symIds": [
            1,
            2
          ]
        }
      ],
      "mol": {
        "atoms": [
          {
            "elSymbol": "P",
            "p3d": {
              "x": -0.009501182115831262,
              "y": 0.0046011821158314335,
              "z": -1.702078708438774
            }
          }
        ],
        "bonds": []
      },
      "vertexId": 141617,
      "buildingBlockId": 3,
      "buildingBlockType": "FRAGMENT",
      "isRCV": false,
      "properties": {
        "ATTACHMENT_POINTS": "1#LMonoAminoPhosphineN:0:SINGLE:1.5576%0.0449%-2.2412,LMonoAminoPhosphineSubR:0:SINGLE:-0.7810%-1.5410%-2.3860,LMonoAminoPhosphineSubR:0:SINGLE:-0.9000%1.4011%-2.4493,MMonoAminoPhosphine:1:SINGLE:-0.0098%0.0049%0.6197 "
      },
      "uniquefyingPropertyKeys": [],
      "allowedMutationTypes": [
        "DELETE",
        "EXTEND",
        "CHANGEBRANCH",
        "CHANGELINK",
        "ADDLINK",
        "DELETELINK",
        "DELETECHAIN"
      ],
      "vertexType": "MolecularFragment"
    },
    {
      "lstAPs": [
        {
          "id": 332256,
          "atomPositionNumber": 0,
          "atomPositionNumberInMol": 6,
          "apClass": {
            "rule": "ATplus",
            "subClass": 0,
            "bndTyp": "ANY"
          },
          "dirVec": {
            "x": -0.7810356757784612,
            "y": -1.5410049186499182,
            "z": -2.385973734275668
          }
        }
      ],
      "lstSymAPs": [],
      "mol": {
        "atoms": [
          {
            "elSymbol": "ATP",
            "p3d": {
              "x": -0.7897530259255463,
              "y": -1.5584682850716631,
              "z": -2.393700870849651
            }
          }
        ],
        "bonds": []
      },
      "vertexId": 141618,
      "buildingBlockId": 77,
      "buildingBlockType": "FRAGMENT",
      "isRCV": true,
      "properties": {
        "ATTACHMENT_POINTS": "1#ATplus:0:ANY:-0.7810%-1.5410%-2.3860 "
      },
      "uniquefyingPropertyKeys": [],
      "allowedMutationTypes": [
        "DELETE",
        "EXTEND",
        "CHANGEBRANCH",
        "CHANGELINK",
        "ADDLINK",
        "DELETELINK",
        "DELETECHAIN"
      ],
      "vertexType": "MolecularFragment"
    },
    {
      "lstAPs": [
        {
          "id": 332257,
          "atomPositionNumber": 0,
          "atomPositionNumberInMol": 7,
          "apClass": {
            "rule": "ATplus",
            "subClass": 0,
            "bndTyp": "ANY"
          },
          "dirVec": {
            "x": -0.8999787291693976,
            "y": 1.4011327409517724,
            "z": -2.44926553472034
          }
        }
      ],
      "lstSymAPs": [],
      "mol": {
        "atoms": [
          {
            "elSymbol": "ATP",
            "p3d": {
              "x": -0.9102665054814141,
              "y": 1.4172670099600302,
              "z": -2.457897858979952
            }
          }
        ],
        "bonds": []
      },
      "vertexId": 141619,
      "buildingBlockId": 77,
      "buildingBlockType": "FRAGMENT",
      "isRCV": true,
      "properties": {
        "ATTACHMENT_POINTS": "1#ATplus:0:ANY:-0.9000%1.4011%-2.4493 "
      },
      "uniquefyingPropertyKeys": [],
      "allowedMutationTypes": [
        "DELETE",
        "EXTEND",
        "CHANGEBRANCH",
        "CHANGELINK",
        "ADDLINK",
        "DELETELINK",
        "DELETECHAIN"
      ],
      "vertexType": "MolecularFragment"
    },
    {
      "lstAPs": [
        {
          "id": 332258,
          "atomPositionNumber": 1,
          "atomPositionNumberInMol": 18,
          "apClass": {
            "rule": "Xlig",
            "subClass": 1,
            "bndTyp": "SINGLE"
          },
          "dirVec": {
            "x": 5.983,
            "y": 5.659,
            "z": 10.7602
          }
        },
        {
          "id": 332259,
          "atomPositionNumber": 0,
          "atomPositionNumberInMol": 17,
          "apClass": {
            "rule": "bridge",
            "subClass": 1,
            "bndTyp": "SINGLE"
          },
          "dirVec": {
            "x": 3.1219,
            "y": 7.0322,
            "z": 12.57
          }
        }
      ],
      "lstSymAPs": [],
      "mol": {
        "atoms": [
          {
            "elSymbol": "S",
            "p3d": {
              "x": 3.289,
              "y": 7.1626,
              "z": 10.7898
            }
          },
          {
            "elSymbol": "O",
            "p3d": {
              "x": 4.7494,
              "y": 7.4238,
              "z": 10.5812
            }
          },
          {
            "elSymbol": "O",
            "p3d": {
              "x": 2.8666,
              "y": 5.9079,
              "z": 10.2063
            }
          },
          {
            "elSymbol": "O",
            "p3d": {
              "x": 2.5225,
              "y": 8.319,
              "z": 10.3914
            }
          }
        ],
        "bonds": [
          {
            "atomIds": [
              0,
              1
            ],
            "bo": "SINGLE"
          },
          {
            "atomIds": [
              2,
              0
            ],
            "bo": "DOUBLE"
          },
          {
            "atomIds": [
              3,
              0
            ],
            "bo": "DOUBLE"
          }
        ]
      },
      "vertexId": 141620,
      "buildingBlockId": 76,
      "buildingBlockType": "FRAGMENT",
      "isRCV": false,
      "properties": {
        "ATTACHMENT_POINTS": "1#bridge:1:SINGLE:3.1219%7.0322%12.5700 2#Xlig:1:SINGLE:5.9830%5.6590%10.7602 "
      },
      "uniquefyingPropertyKeys": [],
      "allowedMutationTypes": [
        "DELETE",
        "EXTEND",
        "CHANGEBRANCH",
        "CHANGELINK",
        "ADDLINK",
        "DELETELINK",
        "DELETECHAIN"
      ],
      "vertexType": "MolecularFragment"
    },
    {
      "lstAPs": [
        {
          "id": 332260,
          "atomPositionNumber": 1,
          "atomPositionNumberInMol": 36,
          "apClass": {
            "rule": "Xlig",
            "subClass": 1,
            "bndTyp": "SINGLE"
          },
          "dirVec": {
            "x": 5.983,
            "y": 5.659,
            "z": 10.7602
          }
        },
        {
          "id": 332261,
          "atomPositionNumber": 0,
          "atomPositionNumberInMol": 35,
          "apClass": {
            "rule": "bridge",
            "subClass": 1,
            "bndTyp": "SINGLE"
          },
          "dirVec": {
            "x": 3.1219,
            "y": 7.0322,
            "z": 12.57
          }
        }
      ],
      "lstSymAPs": [],
      "mol": {
        "atoms": [
          {
            "elSymbol": "S",
            "p3d": {
              "x": 3.289,
              "y": 7.1626,
              "z": 10.7898
            }
          },
          {
            "elSymbol": "O",
            "p3d": {
              "x": 4.7494,
              "y": 7.4238,
              "z": 10.5812
            }
          },
          {
            "elSymbol": "O",
            "p3d": {
              "x": 2.8666,
              "y": 5.9079,
              "z": 10.2063
            }
          },
          {
            "elSymbol": "O",
            "p3d": {
              "x": 2.5225,
              "y": 8.319,
              "z": 10.3914
            }
          }
        ],
        "bonds": [
          {
            "atomIds": [
              0,
              1
            ],
            "bo": "SINGLE"
          },
          {
            "atomIds": [
              2,
              0
            ],
            "bo": "DOUBLE"
          },
          {
            "atomIds": [
              3,
              0
            ],
            "bo": "DOUBLE"
          }
        ]
      },
      "vertexId": 141621,
      "buildingBlockId": 76,
      "buildingBlockType": "FRAGMENT",
      "isRCV": false,
      "properties": {
        "ATTACHMENT_POINTS": "1#bridge:1:SINGLE:3.1219%7.0322%12.5700 2#Xlig:1:SINGLE:5.9830%5.6590%10.7602 "
      },
      "uniquefyingPropertyKeys": [],
      "allowedMutationTypes": [
        "DELETE",
        "EXTEND",
        "CHANGEBRANCH",
        "CHANGELINK",
        "ADDLINK",
        "DELETELINK",
        "DELETECHAIN"
      ],
      "vertexType": "MolecularFragment"
    },
    {
      "lstAPs": [
        {
          "id": 332262,
          "atomPositionNumber": 0,
          "atomPositionNumberInMol": 39,
          "apClass": {
            "rule": "bridge",
            "subClass": 0,
            "bndTyp": "SINGLE"
          },
          "dirVec": {
            "x": 2.2309,
            "y": 1.5817,
            "z": 0.6565999999999999
          }
        },
        {
          "id": 332263,
          "atomPositionNumber": 4,
          "atomPositionNumberInMol": 43,
          "apClass": {
            "rule": "bridge",
            "subClass": 0,
            "bndTyp": "SINGLE"
          },
          "dirVec": {
            "x": 1.1795,
            "y": -0.8206,
            "z": 2.1815
          }
        }
      ],
      "lstSymAPs": [
        {
          "symIds": [
            0,
            1
          ]
        }
      ],
      "mol": {
        "atoms": [
          {
            "elSymbol": "C",
            "p3d": {
              "x": 1.4767,
              "y": 0.4111,
              "z": -0.0358
            }
          },
          {
            "elSymbol": "C",
            "p3d": {
              "x": 0.6064,
              "y": 0.7242,
              "z": -1.2721
            }
          },
          {
            "elSymbol": "C",
            "p3d": {
              "x": -0.3951,
              "y": -0.4594,
              "z": -1.3469
            }
          },
          {
            "elSymbol": "C",
            "p3d": {
              "x": -0.3076,
              "y": -1.2087,
              "z": 0.0097
            }
          },
          {
            "elSymbol": "C",
            "p3d": {
              "x": 0.4613,
              "y": -0.2385,
              "z": 0.9321
            }
          },
          {
            "elSymbol": "H",
            "p3d": {
              "x": 2.2245,
              "y": -0.3328,
              "z": -0.3416
            }
          },
          {
            "elSymbol": "H",
            "p3d": {
              "x": 0.0672,
              "y": 1.6663,
              "z": -1.1316
            }
          },
          {
            "elSymbol": "H",
            "p3d": {
              "x": 1.2126,
              "y": 0.798,
              "z": -2.1799
            }
          },
          {
            "elSymbol": "H",
            "p3d": {
              "x": -0.1332,
              "y": -1.1322,
              "z": -2.1707
            }
          },
          {
            "elSymbol": "H",
            "p3d": {
              "x": -1.4103,
              "y": -0.0853,
              "z": -1.5178
            }
          },
          {
            "elSymbol": "H",
            "p3d": {
              "x": 0.248,
              "y": -2.143,
              "z": -0.114
            }
          },
          {
            "elSymbol": "H",
            "p3d": {
              "x": -1.2998,
              "y": -1.4376,
              "z": 0.4073
            }
          },
          {
            "elSymbol": "H",
            "p3d": {
              "x": -0.2539,
              "y": 0.5182,
              "z": 1.28
            }
          }
        ],
        "bonds": [
          {
            "atomIds": [
              0,
              1
            ],
            "bo": "SINGLE"
          },
          {
            "atomIds": [
              1,
              2
            ],
            "bo": "SINGLE"
          },
          {
            "atomIds": [
              2,
              3
            ],
            "bo": "SINGLE"
          },
          {
            "atomIds": [
              3,
              4
            ],
            "bo": "SINGLE"
          },
          {
            "atomIds": [
              0,
              4
            ],
            "bo": "SINGLE"
          },
          {
            "atomIds": [
              0,
              5
            ],
            "bo": "SINGLE"
          },
          {
            "atomIds": [
              1,
              6
            ],
            "bo": "SINGLE"
          },
          {
            "atomIds": [
              1,
              7
            ],
            "bo": "SINGLE"
          },
          {
            "atomIds": [
              2,
              8
            ],
            "bo": "SINGLE"
          },
          {
            "atomIds": [
              2,
              9
            ],
            "bo": "SINGLE"
          },
          {
            "atomIds": [
              3,
              10
            ],
            "bo": "SINGLE"
          },
          {
            "atomIds": [
              3,
              11
            ],
            "bo": "SINGLE"
          },
          {
            "atomIds": [
              4,
              12
            ],
            "bo": "SINGLE"
          }
        ]
      },
      "vertexId": 141622,
      "buildingBlockId": 69,
      "buildingBlockType": "FRAGMENT",
      "isRCV": false,
      "properties": {
        "ATTACHMENT_POINTS": "1#bridge:0:SINGLE:2.2309%1.5817%0.6566 5#bridge:0:SINGLE:1.1795%-0.8206%2.1815 "
      },
      "uniquefyingPropertyKeys": [],
      "allowedMutationTypes": [
        "DELETE",
        "EXTEND",
        "CHANGEBRANCH",
        "CHANGELINK",
        "ADDLINK",
        "DELETELINK",
        "DELETECHAIN"
      ],
      "vertexType": "MolecularFragment"
    },
    {
      "lstAPs": [
        {
          "id": 332264,
          "atomPositionNumber": 0,
          "atomPositionNumberInMol": 21,
          "apClass": {
            "rule": "bridge",
            "subClass": 0,
            "bndTyp": "SINGLE"
          },
          "dirVec": {
            "x": 2.2309,
            "y": 1.5817,
            "z": 0.6565999999999999
          }
        },
        {
          "id": 332265,
          "atomPositionNumber": 4,
          "atomPositionNumberInMol": 25,
          "apClass": {
            "rule": "bridge",
            "subClass": 0,
            "bndTyp": "SINGLE"
          },
          "dirVec": {
            "x": 1.1795,
            "y": -0.8206,
            "z": 2.1815
          }
        }
      ],
      "lstSymAPs": [
        {
          "symIds": [
            0,
            1
          ]
        }
      ],
      "mol": {
        "atoms": [
          {
            "elSymbol": "C",
            "p3d": {
              "x": 1.4767,
              "y": 0.4111,
              "z": -0.0358
            }
          },
          {
            "elSymbol": "C",
            "p3d": {
              "x": 0.6064,
              "y": 0.7242,
              "z": -1.2721
            }
          },
          {
            "elSymbol": "C",
            "p3d": {
              "x": -0.3951,
              "y": -0.4594,
              "z": -1.3469
            }
          },
          {
            "elSymbol": "C",
            "p3d": {
              "x": -0.3076,
              "y": -1.2087,
              "z": 0.0097
            }
          },
          {
            "elSymbol": "C",
            "p3d": {
              "x": 0.4613,
              "y": -0.2385,
              "z": 0.9321
            }
          },
          {
            "elSymbol": "H",
            "p3d": {
              "x": 2.2245,
              "y": -0.3328,
              "z": -0.3416
            }
          },
          {
            "elSymbol": "H",
            "p3d": {
              "x": 0.0672,
              "y": 1.6663,
              "z": -1.1316
            }
          },
          {
            "elSymbol": "H",
            "p3d": {
              "x": 1.2126,
              "y": 0.798,
              "z": -2.1799
            }
          },
          {
            "elSymbol": "H",
            "p3d": {
              "x": -0.1332,
              "y": -1.1322,
              "z": -2.1707
            }
          },
          {
            "elSymbol": "H",
            "p3d": {
              "x": -1.4103,
              "y": -0.0853,
              "z": -1.5178
            }
          },
          {
            "elSymbol": "H",
            "p3d": {
              "x": 0.248,
              "y": -2.143,
              "z": -0.114
            }
          },
          {
            "elSymbol": "H",
            "p3d": {
              "x": -1.2998,
              "y": -1.4376,
              "z": 0.4073
            }
          },
          {
            "elSymbol": "H",
            "p3d": {
              "x": -0.2539,
              "y": 0.5182,
              "z": 1.28
            }
          }
        ],
        "bonds": [
          {
            "atomIds": [
              0,
              1
            ],
            "bo": "SINGLE"
          },
          {
            "atomIds": [
              1,
              2
            ],
            "bo": "SINGLE"
          },
          {
            "atomIds": [
              2,
              3
            ],
            "bo": "SINGLE"
          },
          {
            "atomIds": [
              3,
              4
            ],
            "bo": "SINGLE"
          },
          {
            "atomIds": [
              0,
              4
            ],
            "bo": "SINGLE"
          },
          {
            "atomIds": [
              0,
              5
            ],
            "bo": "SINGLE"
          },
          {
            "atomIds": [
              1,
              6
            ],
            "bo": "SINGLE"
          },
          {
            "atomIds": [
              1,
              7
            ],
            "bo": "SINGLE"
          },
          {
            "atomIds": [
              2,
              8
            ],
            "bo": "SINGLE"
          },
          {
            "atomIds": [
              2,
              9
            ],
            "bo": "SINGLE"
          },
          {
            "atomIds": [
              3,
              10
            ],
            "bo": "SINGLE"
          },
          {
            "atomIds": [
              3,
              11
            ],
            "bo": "SINGLE"
          },
          {
            "atomIds": [
              4,
              12
            ],
            "bo": "SINGLE"
          }
        ]
      },
      "vertexId": 141623,
      "buildingBlockId": 69,
      "buildingBlockType": "FRAGMENT",
      "isRCV": false,
      "properties": {
        "ATTACHMENT_POINTS": "1#bridge:0:SINGLE:2.2309%1.5817%0.6566 5#bridge:0:SINGLE:1.1795%-0.8206%2.1815 "
      },
      "uniquefyingPropertyKeys": [],
      "allowedMutationTypes": [
        "DELETE",
        "EXTEND",
        "CHANGEBRANCH",
        "CHANGELINK",
        "ADDLINK",
        "DELETELINK",
        "DELETECHAIN"
      ],
      "vertexType": "MolecularFragment"
    },
    {
      "lstAPs": [
        {
          "id": 332266,
          "atomPositionNumber": 0,
          "atomPositionNumberInMol": 34,
          "apClass": {
            "rule": "ATminus",
            "subClass": 0,
            "bndTyp": "ANY"
          },
          "dirVec": {
            "x": 0.0109,
            "y": -0.0071,
            "z": 0.0026
          }
        }
      ],
      "lstSymAPs": [],
      "mol": {
        "atoms": [
          {
            "elSymbol": "ATM",
            "p3d": {
              "x": -0.0096,
              "y": 0.0045,
              "z": -0.0011
            }
          }
        ],
        "bonds": []
      },
      "vertexId": 141624,
      "buildingBlockId": 78,
      "buildingBlockType": "FRAGMENT",
      "isRCV": true,
      "properties": {
        "ATTACHMENT_POINTS": "1#ATminus:0:ANY:0.0109%-0.0071%0.0026 "
      },
      "uniquefyingPropertyKeys": [],
      "allowedMutationTypes": [
        "DELETE",
        "EXTEND",
        "CHANGEBRANCH",
        "CHANGELINK",
        "ADDLINK",
        "DELETELINK",
        "DELETECHAIN"
      ],
      "vertexType": "MolecularFragment"
    },
    {
      "lstAPs": [
        {
          "id": 332267,
          "atomPositionNumber": 0,
          "atomPositionNumberInMol": 52,
          "apClass": {
            "rule": "ATminus",
            "subClass": 0,
            "bndTyp": "ANY"
          },
          "dirVec": {
            "x": 0.0109,
            "y": -0.0071,
            "z": 0.0026
          }
        }
      ],
      "lstSymAPs": [],
      "mol": {
        "atoms": [
          {
            "elSymbol": "ATM",
            "p3d": {
              "x": -0.0096,
              "y": 0.0045,
              "z": -0.0011
            }
          }
        ],
        "bonds": []
      },
      "vertexId": 141625,
      "buildingBlockId": 78,
      "buildingBlockType": "FRAGMENT",
      "isRCV": true,
      "properties": {
        "ATTACHMENT_POINTS": "1#ATminus:0:ANY:0.0109%-0.0071%0.0026 "
      },
      "uniquefyingPropertyKeys": [],
      "allowedMutationTypes": [
        "DELETE",
        "EXTEND",
        "CHANGEBRANCH",
        "CHANGELINK",
        "ADDLINK",
        "DELETELINK",
        "DELETECHAIN"
      ],
      "vertexType": "MolecularFragment"
    },
    {
      "lstAPs": [
        {
          "id": 332328,
          "atomPositionNumber": 0,
          "atomPositionNumberInMol": 8,
          "apClass": {
            "rule": "LAminoPhosphineCycloN",
            "subClass": 1,
            "bndTyp": "SINGLE"
          },
          "dirVec": {
            "x": -1.3075,
            "y": 5.4354,
            "z": 7.3919
          }
        }
      ],
      "lstSymAPs": [],
      "mol": {
        "atoms": [
          {
            "elSymbol": "N",
            "p3d": {
              "x": -0.1435,
              "y": 5.4101,
              "z": 8.6586
            }
          },
          {
            "elSymbol": "C",
            "p3d": {
              "x": 1.0373,
              "y": 6.1488,
              "z": 8.6167
            }
          },
          {
            "elSymbol": "H",
            "p3d": {
              "x": 1.3388,
              "y": 6.7891,
              "z": 7.7925
            }
          },
          {
            "elSymbol": "C",
            "p3d": {
              "x": 1.7319,
              "y": 5.9048,
              "z": 9.7532
            }
          },
          {
            "elSymbol": "H",
            "p3d": {
              "x": 2.7093,
              "y": 6.3384,
              "z": 10.0093
            }
          },
          {
            "elSymbol": "C",
            "p3d": {
              "x": 0.9843,
              "y": 5.0017,
              "z": 10.5353
            }
          },
          {
            "elSymbol": "H",
            "p3d": {
              "x": 1.2753,
              "y": 4.5945,
              "z": 11.5061
            }
          },
          {
            "elSymbol": "C",
            "p3d": {
              "x": -0.1556,
              "y": 4.7101,
              "z": 9.8537
            }
          },
          {
            "elSymbol": "H",
            "p3d": {
              "x": -0.9523,
              "y": 4.0313,
              "z": 10.1872
            }
          }
        ],
        "bonds": [
          {
            "atomIds": [
              0,
              1
            ],
            "bo": "SINGLE"
          },
          {
            "atomIds": [
              1,
              2
            ],
            "bo": "SINGLE"
          },
          {
            "atomIds": [
              3,
              1
            ],
            "bo": "DOUBLE"
          },
          {
            "atomIds": [
              4,
              3
            ],
            "bo": "SINGLE"
          },
          {
            "atomIds": [
              5,
              3
            ],
            "bo": "SINGLE"
          },
          {
            "atomIds": [
              6,
              5
            ],
            "bo": "SINGLE"
          },
          {
            "atomIds": [
              7,
              0
            ],
            "bo": "SINGLE"
          },
          {
            "atomIds": [
              8,
              7
            ],
            "bo": "SINGLE"
          },
          {
            "atomIds": [
              5,
              7
            ],
            "bo": "DOUBLE"
          }
        ]
      },
      "vertexId": 430853,
      "buildingBlockId": 9,
      "buildingBlockType": "FRAGMENT",
      "isRCV": false,
      "properties": {
        "ATTACHMENT_POINTS": "1#LAminoPhosphineCycloN:1:SINGLE:-1.3075%5.4354%7.3919 "
      },
      "uniquefyingPropertyKeys": [],
      "allowedMutationTypes": [
        "DELETE",
        "EXTEND",
        "CHANGEBRANCH",
        "CHANGELINK",
        "ADDLINK",
        "DELETELINK",
        "DELETECHAIN"
      ],
      "vertexType": "MolecularFragment"
    }
  ],
  "gEdges": [
    {
      "srcAPID": 332251,
      "trgAPID": 332255,
      "bondType": "SINGLE"
    },
    {
      "srcAPID": 332253,
      "trgAPID": 332256,
      "bondType": "SINGLE"
    },
    {
      "srcAPID": 332254,
      "trgAPID": 332257,
      "bondType": "SINGLE"
    },
    {
      "srcAPID": 332249,
      "trgAPID": 332258,
      "bondType": "SINGLE"
    },
    {
      "srcAPID": 332250,
      "trgAPID": 332260,
      "bondType": "SINGLE"
    },
    {
      "srcAPID": 332261,
      "trgAPID": 332263,
      "bondType": "SINGLE"
    },
    {
      "srcAPID": 332259,
      "trgAPID": 332265,
      "bondType": "SINGLE"
    },
    {
      "srcAPID": 332264,
      "trgAPID": 332266,
      "bondType": "SINGLE"
    },
    {
      "srcAPID": 332262,
      "trgAPID": 332267,
      "bondType": "SINGLE"
    },
    {
      "srcAPID": 332252,
      "trgAPID": 332328,
      "bondType": "SINGLE"
    }
  ],
  "gRings": [
    {
      "vertices": [
        141618,
        141617,
        141616,
        141620,
        141623,
        141624
      ],
      "bndTyp": "SINGLE"
    },
    {
      "vertices": [
        141619,
        141617,
        141616,
        141621,
        141622,
        141625
      ],
      "bndTyp": "SINGLE"
    }
  ],
  "symVertices": [
    {
      "symIds": [
        141618,
        141619
      ]
    },
    {
      "symIds": [
        141620,
        141621
      ]
    },
    {
      "symIds": [
        141622,
        141623
      ]
    },
    {
      "symIds": [
        141624,
        141625
      ]
    }
  ]
}

> <SMILES>
[Pt]12(C#O)[P](N3C([H])=C([H])C([H])=C3[H])(C4(C(C(C(C4([H])S(O1)(=O)=O)([H])[H])([H])[H])([H])[H])[H])C5(C(C(C(C5([H])S(O2)(=O)=O)([H])[H])([H])[H])([H])[H])[H]

$$$$
