M00011401
  CDK     05032208413D

 52 57  0  0  0  0  0  0  0  0999 V2000
    2.7008    1.1554    0.0091 Pt  0  0  0  0  0  0  0  0  0  0  0  0
    4.6470    1.2451    0.0165 C   0  0  0  0  0  0  0  0  0  0  0  0
    5.7892    1.2908    0.0227 O   0  0  0  0  0  0  0  0  0  0  0  0
   -0.3073    0.0157   -1.3437 C   0  0  0  0  0  0  0  0  0  0  0  0
   -0.9151   -1.0406   -0.7642 C   0  0  0  0  0  0  0  0  0  0  0  0
   -1.5191   -2.1709   -1.5342 C   0  0  0  0  0  0  0  0  0  0  0  0
   -0.6903   -2.8150   -1.9095 H   0  0  0  0  0  0  0  0  0  0  0  0
   -2.0175   -1.7883   -2.4515 H   0  0  0  0  0  0  0  0  0  0  0  0
   -2.5018   -3.0155   -0.7168 C   0  0  0  0  0  0  0  0  0  0  0  0
   -3.4497   -2.4613   -0.5719 H   0  0  0  0  0  0  0  0  0  0  0  0
   -2.7683   -3.9297   -1.2812 H   0  0  0  0  0  0  0  0  0  0  0  0
   -1.8976   -3.3871    0.6405 C   0  0  0  0  0  0  0  0  0  0  0  0
   -0.9518   -3.9459    0.4949 H   0  0  0  0  0  0  0  0  0  0  0  0
   -2.5729   -4.0726    1.1874 H   0  0  0  0  0  0  0  0  0  0  0  0
   -1.6404   -2.1325    1.4815 C   0  0  0  0  0  0  0  0  0  0  0  0
   -2.6068   -1.7265    1.8571 H   0  0  0  0  0  0  0  0  0  0  0  0
   -1.0677   -2.3999    2.3972 H   0  0  0  0  0  0  0  0  0  0  0  0
   -0.9292   -1.0490    0.7358 C   0  0  0  0  0  0  0  0  0  0  0  0
   -0.3096   -0.0134    1.3400 C   0  0  0  0  0  0  0  0  0  0  0  0
    0.4334    1.0564    0.0101 P   0  0  0  0  0  0  0  0  0  0  0  0
   -0.3311    2.7519    0.0331 C   0  0  0  0  0  0  0  0  0  0  0  0
   -0.0098    3.3329   -0.8496 H   0  0  0  0  0  0  0  0  0  0  0  0
   -1.4280    2.7182    0.0364 H   0  0  0  0  0  0  0  0  0  0  0  0
   -0.0037    3.3110    0.9278 H   0  0  0  0  0  0  0  0  0  0  0  0
    2.8477    1.2628   -2.0319 O   0  0  0  0  0  0  0  0  0  0  0  0
    2.3597    0.1305   -2.7048 C   0  0  0  0  0  0  0  0  0  0  0  0
    1.0548    0.4796   -3.3979 C   0  0  0  0  0  0  0  0  0  0  0  0
    1.0963    0.8993   -4.7358 C   0  0  0  0  0  0  0  0  0  0  0  0
   -0.0746    1.2337   -5.4186 C   0  0  0  0  0  0  0  0  0  0  0  0
   -1.3090    1.1556   -4.7658 C   0  0  0  0  0  0  0  0  0  0  0  0
   -1.3662    0.7480   -3.4331 C   0  0  0  0  0  0  0  0  0  0  0  0
   -0.1884    0.4101   -2.7398 C   0  0  0  0  0  0  0  0  0  0  0  0
    3.1450   -0.1328   -3.4465 H   0  0  0  0  0  0  0  0  0  0  0  0
    2.2474   -0.7213   -2.0060 H   0  0  0  0  0  0  0  0  0  0  0  0
    2.0591    0.9781   -5.2430 H   0  0  0  0  0  0  0  0  0  0  0  0
   -0.0255    1.5600   -6.4560 H   0  0  0  0  0  0  0  0  0  0  0  0
   -2.2233    1.4172   -5.2953 H   0  0  0  0  0  0  0  0  0  0  0  0
   -2.3253    0.6989   -2.9213 H   0  0  0  0  0  0  0  0  0  0  0  0
    2.8145    1.2646    2.0520 O   0  0  0  0  0  0  0  0  0  0  0  0
    2.3548    0.1120    2.7109 C   0  0  0  0  0  0  0  0  0  0  0  0
    1.0422    0.4212    3.4084 C   0  0  0  0  0  0  0  0  0  0  0  0
    1.0740    0.8052    4.7573 C   0  0  0  0  0  0  0  0  0  0  0  0
   -0.1037    1.0996    5.4469 C   0  0  0  0  0  0  0  0  0  0  0  0
   -1.3355    1.0156    4.7903 C   0  0  0  0  0  0  0  0  0  0  0  0
   -1.3831    0.6426    3.4471 C   0  0  0  0  0  0  0  0  0  0  0  0
   -0.1987    0.3469    2.7459 C   0  0  0  0  0  0  0  0  0  0  0  0
    2.2615   -0.7335    2.0013 H   0  0  0  0  0  0  0  0  0  0  0  0
    3.1465   -0.1425    3.4488 H   0  0  0  0  0  0  0  0  0  0  0  0
    2.0344    0.8874    5.2684 H   0  0  0  0  0  0  0  0  0  0  0  0
   -0.0617    1.3988    6.4927 H   0  0  0  0  0  0  0  0  0  0  0  0
   -2.2552    1.2451    5.3251 H   0  0  0  0  0  0  0  0  0  0  0  0
   -2.3407    0.5879    2.9334 H   0  0  0  0  0  0  0  0  0  0  0  0
  2  3  3  0  0  0  0
  1  2  1  0  0  0  0
  4  5  2  0  0  0  0
  5  6  1  0  0  0  0
  6  7  1  0  0  0  0
  8  6  1  0  0  0  0
  9  6  1  0  0  0  0
 10  9  1  0  0  0  0
 11  9  1  0  0  0  0
 12  9  1  0  0  0  0
 13 12  1  0  0  0  0
 14 12  1  0  0  0  0
 15 12  1  0  0  0  0
 15 18  1  0  0  0  0
 16 15  1  0  0  0  0
 17 15  1  0  0  0  0
 18  5  1  0  0  0  0
 19 18  2  0  0  0  0
 19 20  1  0  0  0  0
 20  4  1  0  0  0  0
  1 20  1  0  0  0  0
 21 22  1  0  0  0  0
 21 23  1  0  0  0  0
 21 24  1  0  0  0  0
 20 21  1  0  0  0  0
  1 25  1  0  0  0  0
 26 27  1  0  0  0  0
 27 28  1  0  0  0  0
 28 29  2  0  0  0  0
 29 30  1  0  0  0  0
 30 31  2  0  0  0  0
 31 32  1  0  0  0  0
 27 32  2  0  0  0  0
 26 33  1  0  0  0  0
 26 34  1  0  0  0  0
 28 35  1  0  0  0  0
 29 36  1  0  0  0  0
 30 37  1  0  0  0  0
 31 38  1  0  0  0  0
 25 26  1  0  0  0  0
  1 39  1  0  0  0  0
 40 41  1  0  0  0  0
 41 42  1  0  0  0  0
 42 43  2  0  0  0  0
 43 44  1  0  0  0  0
 44 45  2  0  0  0  0
 45 46  1  0  0  0  0
 41 46  2  0  0  0  0
 40 47  1  0  0  0  0
 40 48  1  0  0  0  0
 42 49  1  0  0  0  0
 43 50  1  0  0  0  0
 44 51  1  0  0  0  0
 45 52  1  0  0  0  0
 39 40  1  0  0  0  0
  4 32  1  0  0  0  0
 19 46  1  0  0  0  0
M  END
> <PM6_ENERGY>
-119.367

> <UID>
HQVQNYMCOQWSFJ-KOFPXHSRNA-N

> <FITNESS>
1.14313

> <GCODE>
22481

> <GraphENC>
22481 172572_1_0,172573_46_1,172574_78_1,172575_78_1,172576_73_1,172577_73_1,172578_68_1,172579_68_1,172580_79_1,172581_79_1,802772_24_1, 172572_2_172573_3_SINGLE_scaff:0_MPhosphole:1,172573_1_172574_0_SINGLE_LPhospholeSubAlpha:0_ATplus:0,172573_0_172575_0_SINGLE_LPhospholeSubAlpha:0_ATplus:0,172572_0_172576_0_SINGLE_Xlig:0_Xlig:1,172572_1_172577_0_SINGLE_Xlig:0_Xlig:1,172577_1_172578_0_SINGLE_bridge:1_bridge:0,172576_1_172579_0_SINGLE_bridge:1_bridge:0,172579_1_172580_0_SINGLE_bridge:0_ATminus:0,172578_1_172581_0_SINGLE_bridge:0_ATminus:0,172573_2_802772_0_SINGLE_LPhospholeSubR:0_SubRS:1, DENOPTIMRing [vertices=[172574_78_1, 172573_46_1, 172572_1_0, 172577_73_1, 172578_68_1, 172581_79_1]] DENOPTIMRing [vertices=[172575_78_1, 172573_46_1, 172572_1_0, 172576_73_1, 172579_68_1, 172580_79_1]] SymmetricSet [symIds=[172574, 172575]] SymmetricSet [symIds=[172576, 172577]] SymmetricSet [symIds=[172578, 172579]] SymmetricSet [symIds=[172580, 172581]] 

> <GraphJson>
{
  "graphId": 22481,
  "gVertices": [
    {
      "lstAPs": [
        {
          "id": 905661,
          "atomPositionNumber": 0,
          "atomPositionNumberInMol": 0,
          "apClass": {
            "rule": "Xlig",
            "subClass": 0,
            "bndTyp": "SINGLE"
          },
          "dirVec": {
            "x": -2.3339,
            "y": -0.0087,
            "z": 0.8172
          }
        },
        {
          "id": 905662,
          "atomPositionNumber": 0,
          "atomPositionNumberInMol": 0,
          "apClass": {
            "rule": "Xlig",
            "subClass": 0,
            "bndTyp": "SINGLE"
          },
          "dirVec": {
            "x": 2.336,
            "y": -5.0E-4,
            "z": 0.829
          }
        },
        {
          "id": 905663,
          "atomPositionNumber": 0,
          "atomPositionNumberInMol": 0,
          "apClass": {
            "rule": "scaff",
            "subClass": 0,
            "bndTyp": "SINGLE"
          },
          "dirVec": {
            "x": -0.0095,
            "y": 0.0046,
            "z": -1.7113
          }
        }
      ],
      "lstSymAPs": [
        {
          "symIds": [
            0,
            1
          ]
        }
      ],
      "mol": {
        "atoms": [
          {
            "elSymbol": "Pt",
            "p3d": {
              "x": -0.0098,
              "y": 0.0049,
              "z": 0.6289
            }
          },
          {
            "elSymbol": "C",
            "p3d": {
              "x": -6.0E-4,
              "y": 0.0016,
              "z": 2.5609
            }
          },
          {
            "elSymbol": "O",
            "p3d": {
              "x": 0.0025,
              "y": -0.0041,
              "z": 3.6974
            }
          },
          {
            "elSymbol": "Du",
            "p3d": {
              "x": -0.007,
              "y": 1.0013,
              "z": 0.6372
            }
          },
          {
            "elSymbol": "Du",
            "p3d": {
              "x": -0.0014,
              "y": 0.9902,
              "z": 2.5698
            }
          }
        ],
        "bonds": [
          {
            "atomIds": [
              1,
              2
            ],
            "bo": "TRIPLE"
          },
          {
            "atomIds": [
              0,
              1
            ],
            "bo": "SINGLE"
          },
          {
            "atomIds": [
              3,
              0
            ],
            "bo": "SINGLE"
          },
          {
            "atomIds": [
              4,
              1
            ],
            "bo": "SINGLE"
          }
        ]
      },
      "vertexId": 172572,
      "buildingBlockId": 0,
      "buildingBlockType": "SCAFFOLD",
      "isRCV": false,
      "properties": {
        "ATTACHMENT_POINTS": "1#Xlig:0:SINGLE:-2.3339%-0.0087%0.8172,Xlig:0:SINGLE:2.3360%-0.0005%0.8290,scaff:0:SINGLE:-0.0095%0.0046%-1.7113 "
      },
      "uniquefyingPropertyKeys": [],
      "allowedMutationTypes": [
        "DELETE",
        "EXTEND",
        "CHANGEBRANCH",
        "CHANGELINK",
        "ADDLINK",
        "DELETELINK",
        "DELETECHAIN"
      ],
      "vertexType": "MolecularFragment"
    },
    {
      "lstAPs": [
        {
          "id": 905664,
          "atomPositionNumber": 0,
          "atomPositionNumberInMol": 5,
          "apClass": {
            "rule": "LPhospholeSubAlpha",
            "subClass": 0,
            "bndTyp": "SINGLE"
          },
          "dirVec": {
            "x": -0.2290937897654505,
            "y": 2.845703088769645,
            "z": -2.160777178013941
          }
        },
        {
          "id": 905665,
          "atomPositionNumber": 15,
          "atomPositionNumberInMol": 20,
          "apClass": {
            "rule": "LPhospholeSubAlpha",
            "subClass": 0,
            "bndTyp": "SINGLE"
          },
          "dirVec": {
            "x": 1.433131987709915,
            "y": -2.382198919642542,
            "z": -2.3644685748284955
          }
        },
        {
          "id": 905666,
          "atomPositionNumber": 16,
          "atomPositionNumberInMol": 21,
          "apClass": {
            "rule": "LPhospholeSubR",
            "subClass": 0,
            "bndTyp": "SINGLE"
          },
          "dirVec": {
            "x": -1.5463847239590087,
            "y": -0.5771547632366629,
            "z": -2.390802741050389
          }
        },
        {
          "id": 905667,
          "atomPositionNumber": 16,
          "atomPositionNumberInMol": 21,
          "apClass": {
            "rule": "MPhosphole",
            "subClass": 1,
            "bndTyp": "SINGLE"
          },
          "dirVec": {
            "x": -0.009793254624231097,
            "y": 0.00489325462423156,
            "z": 0.5762815720879806
          }
        }
      ],
      "lstSymAPs": [
        {
          "symIds": [
            0,
            1
          ]
        }
      ],
      "mol": {
        "atoms": [
          {
            "elSymbol": "C",
            "p3d": {
              "x": 0.4856274899334586,
              "y": 1.5762109946729261,
              "z": -2.3981624458202697
            }
          },
          {
            "elSymbol": "C",
            "p3d": {
              "x": 1.611236365338333,
              "y": 1.373370494187636,
              "z": -3.1032865419711895
            }
          },
          {
            "elSymbol": "C",
            "p3d": {
              "x": 2.4357447337692792,
              "y": 2.454179591262286,
              "z": -3.7461023290113147
            }
          },
          {
            "elSymbol": "H",
            "p3d": {
              "x": 3.013329858302042,
              "y": 2.9492383411059415,
              "z": -2.965319966171508
            }
          },
          {
            "elSymbol": "H",
            "p3d": {
              "x": 1.7655347227917784,
              "y": 3.1882174911944157,
              "z": -4.177199710873893
            }
          },
          {
            "elSymbol": "C",
            "p3d": {
              "x": 3.3704725078088114,
              "y": 1.9349274128578793,
              "z": -4.81920613277933
            }
          },
          {
            "elSymbol": "H",
            "p3d": {
              "x": 2.8010380192699245,
              "y": 1.634671134744067,
              "z": -5.695306983546921
            }
          },
          {
            "elSymbol": "H",
            "p3d": {
              "x": 4.063166027586396,
              "y": 2.7363018238259396,
              "z": -5.1175729223249
            }
          },
          {
            "elSymbol": "C",
            "p3d": {
              "x": 4.158814796123447,
              "y": 0.7520137905885036,
              "z": -4.309093303393133
            }
          },
          {
            "elSymbol": "H",
            "p3d": {
              "x": 4.68771796173765,
              "y": 1.0256455622701075,
              "z": -3.4028599532400605
            }
          },
          {
            "elSymbol": "H",
            "p3d": {
              "x": 4.902904515496089,
              "y": 0.4695459391300859,
              "z": -5.061936143842859
            }
          },
          {
            "elSymbol": "C",
            "p3d": {
              "x": 3.2435442631862434,
              "y": -0.4253802058638042,
              "z": -4.056152107351634
            }
          },
          {
            "elSymbol": "H",
            "p3d": {
              "x": 2.8721188104648205,
              "y": -0.8087562236056864,
              "z": -4.996874012109391
            }
          },
          {
            "elSymbol": "H",
            "p3d": {
              "x": 3.7861506052430647,
              "y": -1.2138094024882655,
              "z": -3.5637274842164546
            }
          },
          {
            "elSymbol": "C",
            "p3d": {
              "x": 2.0355845146824265,
              "y": -0.050886930720320245,
              "z": -3.1866848377739334
            }
          },
          {
            "elSymbol": "C",
            "p3d": {
              "x": 1.303944062398438,
              "y": -0.9192241744201626,
              "z": -2.4789488560791755
            }
          },
          {
            "elSymbol": "P",
            "p3d": {
              "x": -0.009506745375768903,
              "y": 0.0046067453757684396,
              "z": -1.658681572087981
            }
          }
        ],
        "bonds": [
          {
            "atomIds": [
              0,
              1
            ],
            "bo": "DOUBLE"
          },
          {
            "atomIds": [
              1,
              2
            ],
            "bo": "SINGLE"
          },
          {
            "atomIds": [
              2,
              3
            ],
            "bo": "SINGLE"
          },
          {
            "atomIds": [
              4,
              2
            ],
            "bo": "SINGLE"
          },
          {
            "atomIds": [
              5,
              2
            ],
            "bo": "SINGLE"
          },
          {
            "atomIds": [
              6,
              5
            ],
            "bo": "SINGLE"
          },
          {
            "atomIds": [
              7,
              5
            ],
            "bo": "SINGLE"
          },
          {
            "atomIds": [
              8,
              5
            ],
            "bo": "SINGLE"
          },
          {
            "atomIds": [
              9,
              8
            ],
            "bo": "SINGLE"
          },
          {
            "atomIds": [
              10,
              8
            ],
            "bo": "SINGLE"
          },
          {
            "atomIds": [
              11,
              8
            ],
            "bo": "SINGLE"
          },
          {
            "atomIds": [
              11,
              14
            ],
            "bo": "SINGLE"
          },
          {
            "atomIds": [
              12,
              11
            ],
            "bo": "SINGLE"
          },
          {
            "atomIds": [
              13,
              11
            ],
            "bo": "SINGLE"
          },
          {
            "atomIds": [
              14,
              1
            ],
            "bo": "SINGLE"
          },
          {
            "atomIds": [
              15,
              14
            ],
            "bo": "DOUBLE"
          },
          {
            "atomIds": [
              15,
              16
            ],
            "bo": "SINGLE"
          },
          {
            "atomIds": [
              16,
              0
            ],
            "bo": "SINGLE"
          }
        ]
      },
      "vertexId": 172573,
      "buildingBlockId": 45,
      "buildingBlockType": "FRAGMENT",
      "isRCV": false,
      "properties": {
        "ATTACHMENT_POINTS": "1#LPhospholeSubAlpha:0:SINGLE:-0.2291%2.8457%-2.1608 16#LPhospholeSubAlpha:0:SINGLE:1.4331%-2.3822%-2.3645 17#LPhospholeSubR:0:SINGLE:-1.5464%-0.5772%-2.3908,MPhosphole:1:SINGLE:-0.0098%0.0049%0.5763 "
      },
      "uniquefyingPropertyKeys": [],
      "allowedMutationTypes": [
        "DELETE",
        "EXTEND",
        "CHANGEBRANCH",
        "CHANGELINK",
        "ADDLINK",
        "DELETELINK",
        "DELETECHAIN"
      ],
      "vertexType": "MolecularFragment"
    },
    {
      "lstAPs": [
        {
          "id": 905668,
          "atomPositionNumber": 0,
          "atomPositionNumberInMol": 22,
          "apClass": {
            "rule": "ATplus",
            "subClass": 0,
            "bndTyp": "ANY"
          },
          "dirVec": {
            "x": 1.433131987709915,
            "y": -2.382198919642542,
            "z": -2.3644685748284955
          }
        }
      ],
      "lstSymAPs": [],
      "mol": {
        "atoms": [
          {
            "elSymbol": "ATP",
            "p3d": {
              "x": 1.4349729282333077,
              "y": -2.4030464523100608,
              "z": -2.3628372196660403
            }
          }
        ],
        "bonds": []
      },
      "vertexId": 172574,
      "buildingBlockId": 77,
      "buildingBlockType": "FRAGMENT",
      "isRCV": true,
      "properties": {
        "ATTACHMENT_POINTS": "1#ATplus:0:ANY:1.4331%-2.3822%-2.3645 "
      },
      "uniquefyingPropertyKeys": [],
      "allowedMutationTypes": [
        "DELETE",
        "EXTEND",
        "CHANGEBRANCH",
        "CHANGELINK",
        "ADDLINK",
        "DELETELINK",
        "DELETECHAIN"
      ],
      "vertexType": "MolecularFragment"
    },
    {
      "lstAPs": [
        {
          "id": 905669,
          "atomPositionNumber": 0,
          "atomPositionNumberInMol": 23,
          "apClass": {
            "rule": "ATplus",
            "subClass": 0,
            "bndTyp": "ANY"
          },
          "dirVec": {
            "x": -0.22909378976545047,
            "y": 2.845703088769645,
            "z": -2.160777178013941
          }
        }
      ],
      "lstSymAPs": [],
      "mol": {
        "atoms": [
          {
            "elSymbol": "ATP",
            "p3d": {
              "x": -0.23925828749796996,
              "y": 2.863757328762798,
              "z": -2.1574011738499577
            }
          }
        ],
        "bonds": []
      },
      "vertexId": 172575,
      "buildingBlockId": 77,
      "buildingBlockType": "FRAGMENT",
      "isRCV": true,
      "properties": {
        "ATTACHMENT_POINTS": "1#ATplus:0:ANY:-0.2291%2.8457%-2.1608 "
      },
      "uniquefyingPropertyKeys": [],
      "allowedMutationTypes": [
        "DELETE",
        "EXTEND",
        "CHANGEBRANCH",
        "CHANGELINK",
        "ADDLINK",
        "DELETELINK",
        "DELETECHAIN"
      ],
      "vertexType": "MolecularFragment"
    },
    {
      "lstAPs": [
        {
          "id": 905670,
          "atomPositionNumber": 0,
          "atomPositionNumberInMol": 28,
          "apClass": {
            "rule": "Xlig",
            "subClass": 1,
            "bndTyp": "SINGLE"
          },
          "dirVec": {
            "x": -0.1753,
            "y": 0.0948,
            "z": -0.4464
          }
        },
        {
          "id": 905671,
          "atomPositionNumber": 0,
          "atomPositionNumberInMol": 28,
          "apClass": {
            "rule": "bridge",
            "subClass": 1,
            "bndTyp": "SINGLE"
          },
          "dirVec": {
            "x": -0.5345,
            "y": 2.7646,
            "z": 0.48009999999999997
          }
        }
      ],
      "lstSymAPs": [],
      "mol": {
        "atoms": [
          {
            "elSymbol": "O",
            "p3d": {
              "x": -0.3534,
              "y": 2.1044,
              "z": -0.7339
            }
          }
        ],
        "bonds": []
      },
      "vertexId": 172576,
      "buildingBlockId": 72,
      "buildingBlockType": "FRAGMENT",
      "isRCV": false,
      "properties": {
        "ATTACHMENT_POINTS": "1#Xlig:1:SINGLE:-0.1753%0.0948%-0.4464,bridge:1:SINGLE:-0.5345%2.7646%0.4801 "
      },
      "uniquefyingPropertyKeys": [],
      "allowedMutationTypes": [
        "DELETE",
        "EXTEND",
        "CHANGEBRANCH",
        "CHANGELINK",
        "ADDLINK",
        "DELETELINK",
        "DELETECHAIN"
      ],
      "vertexType": "MolecularFragment"
    },
    {
      "lstAPs": [
        {
          "id": 905672,
          "atomPositionNumber": 0,
          "atomPositionNumberInMol": 43,
          "apClass": {
            "rule": "Xlig",
            "subClass": 1,
            "bndTyp": "SINGLE"
          },
          "dirVec": {
            "x": -0.1753,
            "y": 0.0948,
            "z": -0.4464
          }
        },
        {
          "id": 905673,
          "atomPositionNumber": 0,
          "atomPositionNumberInMol": 43,
          "apClass": {
            "rule": "bridge",
            "subClass": 1,
            "bndTyp": "SINGLE"
          },
          "dirVec": {
            "x": -0.5345,
            "y": 2.7646,
            "z": 0.48009999999999997
          }
        }
      ],
      "lstSymAPs": [],
      "mol": {
        "atoms": [
          {
            "elSymbol": "O",
            "p3d": {
              "x": -0.3534,
              "y": 2.1044,
              "z": -0.7339
            }
          }
        ],
        "bonds": []
      },
      "vertexId": 172577,
      "buildingBlockId": 72,
      "buildingBlockType": "FRAGMENT",
      "isRCV": false,
      "properties": {
        "ATTACHMENT_POINTS": "1#Xlig:1:SINGLE:-0.1753%0.0948%-0.4464,bridge:1:SINGLE:-0.5345%2.7646%0.4801 "
      },
      "uniquefyingPropertyKeys": [],
      "allowedMutationTypes": [
        "DELETE",
        "EXTEND",
        "CHANGEBRANCH",
        "CHANGELINK",
        "ADDLINK",
        "DELETELINK",
        "DELETECHAIN"
      ],
      "vertexType": "MolecularFragment"
    },
    {
      "lstAPs": [
        {
          "id": 905674,
          "atomPositionNumber": 0,
          "atomPositionNumberInMol": 44,
          "apClass": {
            "rule": "bridge",
            "subClass": 0,
            "bndTyp": "SINGLE"
          },
          "dirVec": {
            "x": -2.5958,
            "y": -0.6501,
            "z": -0.7558
          }
        },
        {
          "id": 905675,
          "atomPositionNumber": 6,
          "atomPositionNumberInMol": 50,
          "apClass": {
            "rule": "bridge",
            "subClass": 0,
            "bndTyp": "SINGLE"
          },
          "dirVec": {
            "x": -0.8149,
            "y": 2.0931,
            "z": 0.1475
          }
        }
      ],
      "lstSymAPs": [],
      "mol": {
        "atoms": [
          {
            "elSymbol": "C",
            "p3d": {
              "x": -1.8258,
              "y": -0.5811,
              "z": 0.5645
            }
          },
          {
            "elSymbol": "C",
            "p3d": {
              "x": -0.3615,
              "y": -0.3647,
              "z": 0.2814
            }
          },
          {
            "elSymbol": "C",
            "p3d": {
              "x": 0.4975,
              "y": -1.4461,
              "z": 0.2179
            }
          },
          {
            "elSymbol": "C",
            "p3d": {
              "x": 1.8404,
              "y": -1.2477,
              "z": -0.0418
            }
          },
          {
            "elSymbol": "C",
            "p3d": {
              "x": 2.3248,
              "y": 0.0323,
              "z": -0.2386
            }
          },
          {
            "elSymbol": "C",
            "p3d": {
              "x": 1.4658,
              "y": 1.1133,
              "z": -0.1761
            }
          },
          {
            "elSymbol": "C",
            "p3d": {
              "x": 0.1217,
              "y": 0.9144,
              "z": 0.0794
            }
          },
          {
            "elSymbol": "H",
            "p3d": {
              "x": -2.206,
              "y": 0.246,
              "z": 1.164
            }
          },
          {
            "elSymbol": "H",
            "p3d": {
              "x": -1.956,
              "y": -1.5155,
              "z": 1.1104
            }
          },
          {
            "elSymbol": "H",
            "p3d": {
              "x": 0.1192,
              "y": -2.446,
              "z": 0.3716
            }
          },
          {
            "elSymbol": "H",
            "p3d": {
              "x": 2.5116,
              "y": -2.0924,
              "z": -0.0906
            }
          },
          {
            "elSymbol": "H",
            "p3d": {
              "x": 3.3743,
              "y": 0.1874,
              "z": -0.4409
            }
          },
          {
            "elSymbol": "H",
            "p3d": {
              "x": 1.8441,
              "y": 2.1132,
              "z": -0.3295
            }
          }
        ],
        "bonds": [
          {
            "atomIds": [
              0,
              1
            ],
            "bo": "SINGLE"
          },
          {
            "atomIds": [
              1,
              2
            ],
            "bo": "SINGLE"
          },
          {
            "atomIds": [
              2,
              3
            ],
            "bo": "DOUBLE"
          },
          {
            "atomIds": [
              3,
              4
            ],
            "bo": "SINGLE"
          },
          {
            "atomIds": [
              4,
              5
            ],
            "bo": "DOUBLE"
          },
          {
            "atomIds": [
              5,
              6
            ],
            "bo": "SINGLE"
          },
          {
            "atomIds": [
              1,
              6
            ],
            "bo": "DOUBLE"
          },
          {
            "atomIds": [
              0,
              7
            ],
            "bo": "SINGLE"
          },
          {
            "atomIds": [
              0,
              8
            ],
            "bo": "SINGLE"
          },
          {
            "atomIds": [
              2,
              9
            ],
            "bo": "SINGLE"
          },
          {
            "atomIds": [
              3,
              10
            ],
            "bo": "SINGLE"
          },
          {
            "atomIds": [
              4,
              11
            ],
            "bo": "SINGLE"
          },
          {
            "atomIds": [
              5,
              12
            ],
            "bo": "SINGLE"
          }
        ]
      },
      "vertexId": 172578,
      "buildingBlockId": 67,
      "buildingBlockType": "FRAGMENT",
      "isRCV": false,
      "properties": {
        "ATTACHMENT_POINTS": "1#bridge:0:SINGLE:-2.5958%-0.6501%-0.7558 7#bridge:0:SINGLE:-0.8149%2.0931%0.1475 "
      },
      "uniquefyingPropertyKeys": [],
      "allowedMutationTypes": [
        "DELETE",
        "EXTEND",
        "CHANGEBRANCH",
        "CHANGELINK",
        "ADDLINK",
        "DELETELINK",
        "DELETECHAIN"
      ],
      "vertexType": "MolecularFragment"
    },
    {
      "lstAPs": [
        {
          "id": 905676,
          "atomPositionNumber": 0,
          "atomPositionNumberInMol": 29,
          "apClass": {
            "rule": "bridge",
            "subClass": 0,
            "bndTyp": "SINGLE"
          },
          "dirVec": {
            "x": -2.5958,
            "y": -0.6501,
            "z": -0.7558
          }
        },
        {
          "id": 905677,
          "atomPositionNumber": 6,
          "atomPositionNumberInMol": 35,
          "apClass": {
            "rule": "bridge",
            "subClass": 0,
            "bndTyp": "SINGLE"
          },
          "dirVec": {
            "x": -0.8149,
            "y": 2.0931,
            "z": 0.1475
          }
        }
      ],
      "lstSymAPs": [],
      "mol": {
        "atoms": [
          {
            "elSymbol": "C",
            "p3d": {
              "x": -1.8258,
              "y": -0.5811,
              "z": 0.5645
            }
          },
          {
            "elSymbol": "C",
            "p3d": {
              "x": -0.3615,
              "y": -0.3647,
              "z": 0.2814
            }
          },
          {
            "elSymbol": "C",
            "p3d": {
              "x": 0.4975,
              "y": -1.4461,
              "z": 0.2179
            }
          },
          {
            "elSymbol": "C",
            "p3d": {
              "x": 1.8404,
              "y": -1.2477,
              "z": -0.0418
            }
          },
          {
            "elSymbol": "C",
            "p3d": {
              "x": 2.3248,
              "y": 0.0323,
              "z": -0.2386
            }
          },
          {
            "elSymbol": "C",
            "p3d": {
              "x": 1.4658,
              "y": 1.1133,
              "z": -0.1761
            }
          },
          {
            "elSymbol": "C",
            "p3d": {
              "x": 0.1217,
              "y": 0.9144,
              "z": 0.0794
            }
          },
          {
            "elSymbol": "H",
            "p3d": {
              "x": -2.206,
              "y": 0.246,
              "z": 1.164
            }
          },
          {
            "elSymbol": "H",
            "p3d": {
              "x": -1.956,
              "y": -1.5155,
              "z": 1.1104
            }
          },
          {
            "elSymbol": "H",
            "p3d": {
              "x": 0.1192,
              "y": -2.446,
              "z": 0.3716
            }
          },
          {
            "elSymbol": "H",
            "p3d": {
              "x": 2.5116,
              "y": -2.0924,
              "z": -0.0906
            }
          },
          {
            "elSymbol": "H",
            "p3d": {
              "x": 3.3743,
              "y": 0.1874,
              "z": -0.4409
            }
          },
          {
            "elSymbol": "H",
            "p3d": {
              "x": 1.8441,
              "y": 2.1132,
              "z": -0.3295
            }
          }
        ],
        "bonds": [
          {
            "atomIds": [
              0,
              1
            ],
            "bo": "SINGLE"
          },
          {
            "atomIds": [
              1,
              2
            ],
            "bo": "SINGLE"
          },
          {
            "atomIds": [
              2,
              3
            ],
            "bo": "DOUBLE"
          },
          {
            "atomIds": [
              3,
              4
            ],
            "bo": "SINGLE"
          },
          {
            "atomIds": [
              4,
              5
            ],
            "bo": "DOUBLE"
          },
          {
            "atomIds": [
              5,
              6
            ],
            "bo": "SINGLE"
          },
          {
            "atomIds": [
              1,
              6
            ],
            "bo": "DOUBLE"
          },
          {
            "atomIds": [
              0,
              7
            ],
            "bo": "SINGLE"
          },
          {
            "atomIds": [
              0,
              8
            ],
            "bo": "SINGLE"
          },
          {
            "atomIds": [
              2,
              9
            ],
            "bo": "SINGLE"
          },
          {
            "atomIds": [
              3,
              10
            ],
            "bo": "SINGLE"
          },
          {
            "atomIds": [
              4,
              11
            ],
            "bo": "SINGLE"
          },
          {
            "atomIds": [
              5,
              12
            ],
            "bo": "SINGLE"
          }
        ]
      },
      "vertexId": 172579,
      "buildingBlockId": 67,
      "buildingBlockType": "FRAGMENT",
      "isRCV": false,
      "properties": {
        "ATTACHMENT_POINTS": "1#bridge:0:SINGLE:-2.5958%-0.6501%-0.7558 7#bridge:0:SINGLE:-0.8149%2.0931%0.1475 "
      },
      "uniquefyingPropertyKeys": [],
      "allowedMutationTypes": [
        "DELETE",
        "EXTEND",
        "CHANGEBRANCH",
        "CHANGELINK",
        "ADDLINK",
        "DELETELINK",
        "DELETECHAIN"
      ],
      "vertexType": "MolecularFragment"
    },
    {
      "lstAPs": [
        {
          "id": 905678,
          "atomPositionNumber": 0,
          "atomPositionNumberInMol": 42,
          "apClass": {
            "rule": "ATminus",
            "subClass": 0,
            "bndTyp": "ANY"
          },
          "dirVec": {
            "x": 0.0109,
            "y": -0.0071,
            "z": 0.0026
          }
        }
      ],
      "lstSymAPs": [],
      "mol": {
        "atoms": [
          {
            "elSymbol": "ATM",
            "p3d": {
              "x": -0.0096,
              "y": 0.0045,
              "z": -0.0011
            }
          }
        ],
        "bonds": []
      },
      "vertexId": 172580,
      "buildingBlockId": 78,
      "buildingBlockType": "FRAGMENT",
      "isRCV": true,
      "properties": {
        "ATTACHMENT_POINTS": "1#ATminus:0:ANY:0.0109%-0.0071%0.0026 "
      },
      "uniquefyingPropertyKeys": [],
      "allowedMutationTypes": [
        "DELETE",
        "EXTEND",
        "CHANGEBRANCH",
        "CHANGELINK",
        "ADDLINK",
        "DELETELINK",
        "DELETECHAIN"
      ],
      "vertexType": "MolecularFragment"
    },
    {
      "lstAPs": [
        {
          "id": 905679,
          "atomPositionNumber": 0,
          "atomPositionNumberInMol": 57,
          "apClass": {
            "rule": "ATminus",
            "subClass": 0,
            "bndTyp": "ANY"
          },
          "dirVec": {
            "x": 0.0109,
            "y": -0.0071,
            "z": 0.0026
          }
        }
      ],
      "lstSymAPs": [],
      "mol": {
        "atoms": [
          {
            "elSymbol": "ATM",
            "p3d": {
              "x": -0.0096,
              "y": 0.0045,
              "z": -0.0011
            }
          }
        ],
        "bonds": []
      },
      "vertexId": 172581,
      "buildingBlockId": 78,
      "buildingBlockType": "FRAGMENT",
      "isRCV": true,
      "properties": {
        "ATTACHMENT_POINTS": "1#ATminus:0:ANY:0.0109%-0.0071%0.0026 "
      },
      "uniquefyingPropertyKeys": [],
      "allowedMutationTypes": [
        "DELETE",
        "EXTEND",
        "CHANGEBRANCH",
        "CHANGELINK",
        "ADDLINK",
        "DELETELINK",
        "DELETECHAIN"
      ],
      "vertexType": "MolecularFragment"
    },
    {
      "lstAPs": [
        {
          "id": 905740,
          "atomPositionNumber": 0,
          "atomPositionNumberInMol": 24,
          "apClass": {
            "rule": "SubRS",
            "subClass": 1,
            "bndTyp": "SINGLE"
          },
          "dirVec": {
            "x": 0.2865,
            "y": 0.3959,
            "z": -0.6387
          }
        }
      ],
      "lstSymAPs": [],
      "mol": {
        "atoms": [
          {
            "elSymbol": "C",
            "p3d": {
              "x": 0.3969,
              "y": -0.0496,
              "z": 0.8235
            }
          },
          {
            "elSymbol": "H",
            "p3d": {
              "x": -0.6146,
              "y": -0.163,
              "z": 1.2402
            }
          },
          {
            "elSymbol": "H",
            "p3d": {
              "x": 0.9335,
              "y": -0.9979,
              "z": 0.8998
            }
          },
          {
            "elSymbol": "H",
            "p3d": {
              "x": 0.9252,
              "y": 0.7237,
              "z": 1.3995
            }
          }
        ],
        "bonds": [
          {
            "atomIds": [
              0,
              1
            ],
            "bo": "SINGLE"
          },
          {
            "atomIds": [
              0,
              2
            ],
            "bo": "SINGLE"
          },
          {
            "atomIds": [
              0,
              3
            ],
            "bo": "SINGLE"
          }
        ]
      },
      "vertexId": 802772,
      "buildingBlockId": 23,
      "buildingBlockType": "FRAGMENT",
      "isRCV": false,
      "properties": {
        "ATTACHMENT_POINTS": "1#SubRS:1:SINGLE:0.2865%0.3959%-0.6387 "
      },
      "uniquefyingPropertyKeys": [],
      "allowedMutationTypes": [
        "DELETE",
        "EXTEND",
        "CHANGEBRANCH",
        "CHANGELINK",
        "ADDLINK",
        "DELETELINK",
        "DELETECHAIN"
      ],
      "vertexType": "MolecularFragment"
    }
  ],
  "gEdges": [
    {
      "srcAPID": 905663,
      "trgAPID": 905667,
      "bondType": "SINGLE"
    },
    {
      "srcAPID": 905665,
      "trgAPID": 905668,
      "bondType": "SINGLE"
    },
    {
      "srcAPID": 905664,
      "trgAPID": 905669,
      "bondType": "SINGLE"
    },
    {
      "srcAPID": 905661,
      "trgAPID": 905670,
      "bondType": "SINGLE"
    },
    {
      "srcAPID": 905662,
      "trgAPID": 905672,
      "bondType": "SINGLE"
    },
    {
      "srcAPID": 905673,
      "trgAPID": 905674,
      "bondType": "SINGLE"
    },
    {
      "srcAPID": 905671,
      "trgAPID": 905676,
      "bondType": "SINGLE"
    },
    {
      "srcAPID": 905677,
      "trgAPID": 905678,
      "bondType": "SINGLE"
    },
    {
      "srcAPID": 905675,
      "trgAPID": 905679,
      "bondType": "SINGLE"
    },
    {
      "srcAPID": 905666,
      "trgAPID": 905740,
      "bondType": "SINGLE"
    }
  ],
  "gRings": [
    {
      "vertices": [
        172574,
        172573,
        172572,
        172577,
        172578,
        172581
      ],
      "bndTyp": "SINGLE"
    },
    {
      "vertices": [
        172575,
        172573,
        172572,
        172576,
        172579,
        172580
      ],
      "bndTyp": "SINGLE"
    }
  ],
  "symVertices": [
    {
      "symIds": [
        172574,
        172575
      ]
    },
    {
      "symIds": [
        172576,
        172577
      ]
    },
    {
      "symIds": [
        172578,
        172579
      ]
    },
    {
      "symIds": [
        172580,
        172581
      ]
    }
  ]
}

> <SMILES>
[Pt]12(C#O)[P]3(C(=C4C(C(C(C(C4=C3C=5C(=C(C(=C(C5C([H])([H])O1)[H])[H])[H])[H])([H])[H])([H])[H])([H])[H])([H])[H])C=6C(=C(C(=C(C6C([H])([H])O2)[H])[H])[H])[H])C([H])([H])[H]

$$$$
