M00003909
  CDK     05032208083D

 51 56  0  0  0  0  0  0  0  0999 V2000
   -0.3722   -0.0164    0.6112 Pt  0  0  0  0  0  0  0  0  0  0  0  0
   -2.3226   -0.0021    0.6760 C   0  0  0  0  0  0  0  0  0  0  0  0
   -3.4572   -0.0191    0.8087 O   0  0  0  0  0  0  0  0  0  0  0  0
    1.8950   -0.1086    0.7065 P   0  0  0  0  0  0  0  0  0  0  0  0
    1.5751    0.3753   -1.9653 C   0  0  0  0  0  0  0  0  0  0  0  0
    2.5580   -0.3231   -1.0374 C   0  0  0  0  0  0  0  0  0  0  0  0
    1.4943    1.4606   -1.7899 H   0  0  0  0  0  0  0  0  0  0  0  0
    1.8866    0.2597   -3.0148 H   0  0  0  0  0  0  0  0  0  0  0  0
    0.5513   -0.0428   -1.9057 H   0  0  0  0  0  0  0  0  0  0  0  0
    2.6232   -1.4045   -1.2913 H   0  0  0  0  0  0  0  0  0  0  0  0
    3.5805    0.0837   -1.1476 H   0  0  0  0  0  0  0  0  0  0  0  0
   -0.3005    1.9533    0.5669 N   0  0  0  0  0  0  0  0  0  0  0  0
    0.5329    2.7866    1.3453 C   0  0  0  0  0  0  0  0  0  0  0  0
    0.2867    4.1229    1.0705 C   0  0  0  0  0  0  0  0  0  0  0  0
   -0.7400    4.1642    0.0635 C   0  0  0  0  0  0  0  0  0  0  0  0
   -1.3987    5.2040   -0.6146 C   0  0  0  0  0  0  0  0  0  0  0  0
   -2.3458    4.8800   -1.5737 C   0  0  0  0  0  0  0  0  0  0  0  0
   -2.6501    3.5308   -1.8843 C   0  0  0  0  0  0  0  0  0  0  0  0
   -2.0246    2.4771   -1.2375 C   0  0  0  0  0  0  0  0  0  0  0  0
   -1.0755    2.7981   -0.2469 C   0  0  0  0  0  0  0  0  0  0  0  0
    0.7556    4.9767    1.5088 H   0  0  0  0  0  0  0  0  0  0  0  0
   -1.1607    6.2389   -0.3827 H   0  0  0  0  0  0  0  0  0  0  0  0
   -2.8703    5.6683   -2.1084 H   0  0  0  0  0  0  0  0  0  0  0  0
   -3.3930    3.3288   -2.6543 H   0  0  0  0  0  0  0  0  0  0  0  0
   -2.2379    1.4462   -1.4963 H   0  0  0  0  0  0  0  0  0  0  0  0
    2.6395    1.4529    1.4550 C   0  0  0  0  0  0  0  0  0  0  0  0
    1.5542    2.1830    2.2530 C   0  0  0  0  0  0  0  0  0  0  0  0
    3.0225    2.1187    0.6504 H   0  0  0  0  0  0  0  0  0  0  0  0
    3.5091    1.2152    2.0945 H   0  0  0  0  0  0  0  0  0  0  0  0
    1.0664    1.5277    3.0092 H   0  0  0  0  0  0  0  0  0  0  0  0
    2.0293    2.9927    2.8534 H   0  0  0  0  0  0  0  0  0  0  0  0
   -0.3296   -1.9819    0.5546 N   0  0  0  0  0  0  0  0  0  0  0  0
    0.4049   -2.8338    1.4093 C   0  0  0  0  0  0  0  0  0  0  0  0
    0.1787   -4.1630    1.0893 C   0  0  0  0  0  0  0  0  0  0  0  0
   -0.7380   -4.1794   -0.0204 C   0  0  0  0  0  0  0  0  0  0  0  0
   -1.3352   -5.2008   -0.7790 C   0  0  0  0  0  0  0  0  0  0  0  0
   -2.1816   -4.8508   -1.8196 C   0  0  0  0  0  0  0  0  0  0  0  0
   -2.4476   -3.4936   -2.1326 C   0  0  0  0  0  0  0  0  0  0  0  0
   -1.8804   -2.4570   -1.4095 C   0  0  0  0  0  0  0  0  0  0  0  0
   -1.0295   -2.8062   -0.3423 C   0  0  0  0  0  0  0  0  0  0  0  0
    0.5903   -5.0278    1.5623 H   0  0  0  0  0  0  0  0  0  0  0  0
   -1.1298   -6.2419   -0.5438 H   0  0  0  0  0  0  0  0  0  0  0  0
   -2.6566   -5.6249   -2.4177 H   0  0  0  0  0  0  0  0  0  0  0  0
   -3.1140   -3.2725   -2.9647 H   0  0  0  0  0  0  0  0  0  0  0  0
   -2.0654   -1.4179   -1.6583 H   0  0  0  0  0  0  0  0  0  0  0  0
    2.5076   -1.5339    1.7827 C   0  0  0  0  0  0  0  0  0  0  0  0
    1.3093   -2.2325    2.4332 C   0  0  0  0  0  0  0  0  0  0  0  0
    3.2096   -1.1685    2.5559 H   0  0  0  0  0  0  0  0  0  0  0  0
    3.0776   -2.2629    1.1685 H   0  0  0  0  0  0  0  0  0  0  0  0
    1.6810   -3.0345    3.1110 H   0  0  0  0  0  0  0  0  0  0  0  0
    0.7377   -1.5450    3.0986 H   0  0  0  0  0  0  0  0  0  0  0  0
  2  3  3  0  0  0  0
  1  2  1  0  0  0  0
  1  4  1  0  0  0  0
  5  6  1  0  0  0  0
  5  7  1  0  0  0  0
  5  8  1  0  0  0  0
  5  9  1  0  0  0  0
  6 10  1  0  0  0  0
  6 11  1  0  0  0  0
  4  6  1  0  0  0  0
 13 12  1  0  0  0  0
 14 13  2  0  0  0  0
 15 14  1  0  0  0  0
 15 20  1  0  0  0  0
 16 15  2  0  0  0  0
 17 16  1  0  0  0  0
 18 17  2  0  0  0  0
 19 18  1  0  0  0  0
 19 20  2  0  0  0  0
 20 12  1  0  0  0  0
 21 14  1  0  0  0  0
 22 16  1  0  0  0  0
 23 17  1  0  0  0  0
 24 18  1  0  0  0  0
 25 19  1  0  0  0  0
  1 12  1  0  0  0  0
 26 27  1  0  0  0  0
 26 28  1  0  0  0  0
 26 29  1  0  0  0  0
 27 30  1  0  0  0  0
 27 31  1  0  0  0  0
 13 27  1  0  0  0  0
 33 32  1  0  0  0  0
 34 33  2  0  0  0  0
 35 34  1  0  0  0  0
 35 40  1  0  0  0  0
 36 35  2  0  0  0  0
 37 36  1  0  0  0  0
 38 37  2  0  0  0  0
 39 38  1  0  0  0  0
 39 40  2  0  0  0  0
 40 32  1  0  0  0  0
 41 34  1  0  0  0  0
 42 36  1  0  0  0  0
 43 37  1  0  0  0  0
 44 38  1  0  0  0  0
 45 39  1  0  0  0  0
  1 32  1  0  0  0  0
 46 47  1  0  0  0  0
 46 48  1  0  0  0  0
 46 49  1  0  0  0  0
 47 50  1  0  0  0  0
 47 51  1  0  0  0  0
 33 47  1  0  0  0  0
  4 46  1  0  0  0  0
  4 26  1  0  0  0  0
M  END
> <PM6_ENERGY>
158.003

> <UID>
JMCORUWYOOZVEK-LNRLNCPQNA-N

> <FITNESS>
1.14246

> <GCODE>
14357

> <GraphENC>
14357 128032_1_0,128033_3_1,128034_78_1,128035_78_1,128036_75_1,128037_75_1,128038_66_1,128039_66_1,128040_79_1,128041_79_1,516310_25_1, 128032_2_128033_3_SINGLE_scaff:0_MBisAminoPhosphine:1,128033_0_128034_0_SINGLE_LBisAminoPhosphineN:0_ATplus:0,128033_1_128035_0_SINGLE_LBisAminoPhosphineN:0_ATplus:0,128032_0_128036_0_SINGLE_Xlig:0_Xlig:1,128032_1_128037_0_SINGLE_Xlig:0_Xlig:1,128037_1_128038_0_SINGLE_bridge:1_bridge:0,128036_1_128039_0_SINGLE_bridge:1_bridge:0,128038_1_128040_0_SINGLE_bridge:0_ATminus:0,128039_1_128041_0_SINGLE_bridge:0_ATminus:0,128033_2_516310_0_SINGLE_LBisAminoPhosphineSubR:0_SubRS:1, DENOPTIMRing [vertices=[128034_78_1, 128033_3_1, 128032_1_0, 128037_75_1, 128038_66_1, 128040_79_1]] DENOPTIMRing [vertices=[128035_78_1, 128033_3_1, 128032_1_0, 128036_75_1, 128039_66_1, 128041_79_1]] SymmetricSet [symIds=[128034, 128035]] SymmetricSet [symIds=[128036, 128037]] SymmetricSet [symIds=[128038, 128039]] SymmetricSet [symIds=[128040, 128041]] 

> <GraphJson>
{
  "graphId": 14357,
  "gVertices": [
    {
      "lstAPs": [
        {
          "id": 473365,
          "atomPositionNumber": 0,
          "atomPositionNumberInMol": 0,
          "apClass": {
            "rule": "Xlig",
            "subClass": 0,
            "bndTyp": "SINGLE"
          },
          "dirVec": {
            "x": -2.3339,
            "y": -0.0087,
            "z": 0.8172
          }
        },
        {
          "id": 473366,
          "atomPositionNumber": 0,
          "atomPositionNumberInMol": 0,
          "apClass": {
            "rule": "Xlig",
            "subClass": 0,
            "bndTyp": "SINGLE"
          },
          "dirVec": {
            "x": 2.336,
            "y": -5.0E-4,
            "z": 0.829
          }
        },
        {
          "id": 473367,
          "atomPositionNumber": 0,
          "atomPositionNumberInMol": 0,
          "apClass": {
            "rule": "scaff",
            "subClass": 0,
            "bndTyp": "SINGLE"
          },
          "dirVec": {
            "x": -0.0095,
            "y": 0.0046,
            "z": -1.7113
          }
        }
      ],
      "lstSymAPs": [
        {
          "symIds": [
            0,
            1
          ]
        }
      ],
      "mol": {
        "atoms": [
          {
            "elSymbol": "Pt",
            "p3d": {
              "x": -0.0098,
              "y": 0.0049,
              "z": 0.6289
            }
          },
          {
            "elSymbol": "C",
            "p3d": {
              "x": -6.0E-4,
              "y": 0.0016,
              "z": 2.5609
            }
          },
          {
            "elSymbol": "O",
            "p3d": {
              "x": 0.0025,
              "y": -0.0041,
              "z": 3.6974
            }
          },
          {
            "elSymbol": "Du",
            "p3d": {
              "x": -0.007,
              "y": 1.0013,
              "z": 0.6372
            }
          },
          {
            "elSymbol": "Du",
            "p3d": {
              "x": -0.0014,
              "y": 0.9902,
              "z": 2.5698
            }
          }
        ],
        "bonds": [
          {
            "atomIds": [
              1,
              2
            ],
            "bo": "TRIPLE"
          },
          {
            "atomIds": [
              0,
              1
            ],
            "bo": "SINGLE"
          },
          {
            "atomIds": [
              3,
              0
            ],
            "bo": "SINGLE"
          },
          {
            "atomIds": [
              4,
              1
            ],
            "bo": "SINGLE"
          }
        ]
      },
      "vertexId": 128032,
      "buildingBlockId": 0,
      "buildingBlockType": "SCAFFOLD",
      "isRCV": false,
      "properties": {
        "ATTACHMENT_POINTS": "1#Xlig:0:SINGLE:-2.3339%-0.0087%0.8172,Xlig:0:SINGLE:2.3360%-0.0005%0.8290,scaff:0:SINGLE:-0.0095%0.0046%-1.7113 "
      },
      "uniquefyingPropertyKeys": [],
      "allowedMutationTypes": [
        "DELETE",
        "EXTEND",
        "CHANGEBRANCH",
        "CHANGELINK",
        "ADDLINK",
        "DELETELINK",
        "DELETECHAIN"
      ],
      "vertexType": "MolecularFragment"
    },
    {
      "lstAPs": [
        {
          "id": 473368,
          "atomPositionNumber": 0,
          "atomPositionNumberInMol": 5,
          "apClass": {
            "rule": "LBisAminoPhosphineN",
            "subClass": 0,
            "bndTyp": "SINGLE"
          },
          "dirVec": {
            "x": -1.4836542747353576,
            "y": -0.4538975253672072,
            "z": -2.2251740958626516
          }
        },
        {
          "id": 473369,
          "atomPositionNumber": 0,
          "atomPositionNumberInMol": 5,
          "apClass": {
            "rule": "LBisAminoPhosphineN",
            "subClass": 0,
            "bndTyp": "SINGLE"
          },
          "dirVec": {
            "x": 1.1239153761877054,
            "y": -1.005409361745156,
            "z": -2.3783491914885553
          }
        },
        {
          "id": 473370,
          "atomPositionNumber": 0,
          "atomPositionNumberInMol": 5,
          "apClass": {
            "rule": "LBisAminoPhosphineSubR",
            "subClass": 0,
            "bndTyp": "SINGLE"
          },
          "dirVec": {
            "x": 0.3436803425970725,
            "y": 1.5383345352575741,
            "z": -2.5539605203349587
          }
        },
        {
          "id": 473371,
          "atomPositionNumber": 0,
          "atomPositionNumberInMol": 5,
          "apClass": {
            "rule": "MBisAminoPhosphine",
            "subClass": 1,
            "bndTyp": "SINGLE"
          },
          "dirVec": {
            "x": -0.009795376095970013,
            "y": 0.004895376095970078,
            "z": 0.5928304659627013
          }
        }
      ],
      "lstSymAPs": [
        {
          "symIds": [
            0,
            1
          ]
        }
      ],
      "mol": {
        "atoms": [
          {
            "elSymbol": "P",
            "p3d": {
              "x": -0.009504623904029987,
              "y": 0.004604623904029922,
              "z": -1.6752304659627018
            }
          }
        ],
        "bonds": []
      },
      "vertexId": 128033,
      "buildingBlockId": 2,
      "buildingBlockType": "FRAGMENT",
      "isRCV": false,
      "properties": {
        "ATTACHMENT_POINTS": "1#LBisAminoPhosphineN:0:SINGLE:-1.4837%-0.4539%-2.2252,LBisAminoPhosphineN:0:SINGLE:1.1239%-1.0054%-2.3783,LBisAminoPhosphineSubR:0:SINGLE:0.3437%1.5383%-2.5540,MBisAminoPhosphine:1:SINGLE:-0.0098%0.0049%0.5928 "
      },
      "uniquefyingPropertyKeys": [],
      "allowedMutationTypes": [
        "DELETE",
        "EXTEND",
        "CHANGEBRANCH",
        "CHANGELINK",
        "ADDLINK",
        "DELETELINK",
        "DELETECHAIN"
      ],
      "vertexType": "MolecularFragment"
    },
    {
      "lstAPs": [
        {
          "id": 473372,
          "atomPositionNumber": 0,
          "atomPositionNumberInMol": 6,
          "apClass": {
            "rule": "ATplus",
            "subClass": 0,
            "bndTyp": "ANY"
          },
          "dirVec": {
            "x": -1.4836542747353576,
            "y": -0.4538975253672072,
            "z": -2.2251740958626516
          }
        }
      ],
      "lstSymAPs": [],
      "mol": {
        "atoms": [
          {
            "elSymbol": "ATP",
            "p3d": {
              "x": -1.5025369335754468,
              "y": -0.4597705652293772,
              "z": -2.23221842676815
            }
          }
        ],
        "bonds": []
      },
      "vertexId": 128034,
      "buildingBlockId": 77,
      "buildingBlockType": "FRAGMENT",
      "isRCV": true,
      "properties": {
        "ATTACHMENT_POINTS": "1#ATplus:0:ANY:-1.4837%-0.4539%-2.2252 "
      },
      "uniquefyingPropertyKeys": [],
      "allowedMutationTypes": [
        "DELETE",
        "EXTEND",
        "CHANGEBRANCH",
        "CHANGELINK",
        "ADDLINK",
        "DELETELINK",
        "DELETECHAIN"
      ],
      "vertexType": "MolecularFragment"
    },
    {
      "lstAPs": [
        {
          "id": 473373,
          "atomPositionNumber": 0,
          "atomPositionNumberInMol": 7,
          "apClass": {
            "rule": "ATplus",
            "subClass": 0,
            "bndTyp": "ANY"
          },
          "dirVec": {
            "x": 1.1239153761877054,
            "y": -1.005409361745156,
            "z": -2.3783491914885553
          }
        }
      ],
      "lstSymAPs": [],
      "mol": {
        "atoms": [
          {
            "elSymbol": "ATP",
            "p3d": {
              "x": 1.138136532484957,
              "y": -1.018082128019939,
              "z": -2.38717130623015
            }
          }
        ],
        "bonds": []
      },
      "vertexId": 128035,
      "buildingBlockId": 77,
      "buildingBlockType": "FRAGMENT",
      "isRCV": true,
      "properties": {
        "ATTACHMENT_POINTS": "1#ATplus:0:ANY:1.1239%-1.0054%-2.3783 "
      },
      "uniquefyingPropertyKeys": [],
      "allowedMutationTypes": [
        "DELETE",
        "EXTEND",
        "CHANGEBRANCH",
        "CHANGELINK",
        "ADDLINK",
        "DELETELINK",
        "DELETECHAIN"
      ],
      "vertexType": "MolecularFragment"
    },
    {
      "lstAPs": [
        {
          "id": 473374,
          "atomPositionNumber": 0,
          "atomPositionNumberInMol": 15,
          "apClass": {
            "rule": "Xlig",
            "subClass": 1,
            "bndTyp": "SINGLE"
          },
          "dirVec": {
            "x": 1.6157,
            "y": 4.174,
            "z": -3.9778
          }
        },
        {
          "id": 473375,
          "atomPositionNumber": 1,
          "atomPositionNumberInMol": 16,
          "apClass": {
            "rule": "bridge",
            "subClass": 1,
            "bndTyp": "SINGLE"
          },
          "dirVec": {
            "x": 1.8005,
            "y": 5.9885,
            "z": -1.6916
          }
        }
      ],
      "lstSymAPs": [],
      "mol": {
        "atoms": [
          {
            "elSymbol": "N",
            "p3d": {
              "x": 3.2459,
              "y": 5.1712,
              "z": -3.4361
            }
          },
          {
            "elSymbol": "C",
            "p3d": {
              "x": 3.1168,
              "y": 5.9027,
              "z": -2.2546
            }
          },
          {
            "elSymbol": "C",
            "p3d": {
              "x": 4.3191,
              "y": 6.5056,
              "z": -1.9234
            }
          },
          {
            "elSymbol": "C",
            "p3d": {
              "x": 5.2572,
              "y": 6.1707,
              "z": -2.9298
            }
          },
          {
            "elSymbol": "C",
            "p3d": {
              "x": 6.582,
              "y": 6.5002,
              "z": -3.1678
            }
          },
          {
            "elSymbol": "C",
            "p3d": {
              "x": 7.1905,
              "y": 6.1037,
              "z": -4.3266
            }
          },
          {
            "elSymbol": "C",
            "p3d": {
              "x": 6.49,
              "y": 5.3293,
              "z": -5.2524
            }
          },
          {
            "elSymbol": "C",
            "p3d": {
              "x": 5.1723,
              "y": 4.9274,
              "z": -5.0458
            }
          },
          {
            "elSymbol": "C",
            "p3d": {
              "x": 4.5534,
              "y": 5.34,
              "z": -3.8694
            }
          },
          {
            "elSymbol": "H",
            "p3d": {
              "x": 4.4846,
              "y": 7.0468,
              "z": -1.1588
            }
          },
          {
            "elSymbol": "H",
            "p3d": {
              "x": 7.0676,
              "y": 7.004,
              "z": -2.5242
            }
          },
          {
            "elSymbol": "H",
            "p3d": {
              "x": 8.0904,
              "y": 6.3555,
              "z": -4.5017
            }
          },
          {
            "elSymbol": "H",
            "p3d": {
              "x": 6.9258,
              "y": 5.0667,
              "z": -6.0535
            }
          },
          {
            "elSymbol": "H",
            "p3d": {
              "x": 4.714,
              "y": 4.3942,
              "z": -5.6832
            }
          }
        ],
        "bonds": [
          {
            "atomIds": [
              1,
              0
            ],
            "bo": "SINGLE"
          },
          {
            "atomIds": [
              2,
              1
            ],
            "bo": "DOUBLE"
          },
          {
            "atomIds": [
              3,
              2
            ],
            "bo": "SINGLE"
          },
          {
            "atomIds": [
              3,
              8
            ],
            "bo": "SINGLE"
          },
          {
            "atomIds": [
              4,
              3
            ],
            "bo": "DOUBLE"
          },
          {
            "atomIds": [
              5,
              4
            ],
            "bo": "SINGLE"
          },
          {
            "atomIds": [
              6,
              5
            ],
            "bo": "DOUBLE"
          },
          {
            "atomIds": [
              7,
              6
            ],
            "bo": "SINGLE"
          },
          {
            "atomIds": [
              7,
              8
            ],
            "bo": "DOUBLE"
          },
          {
            "atomIds": [
              8,
              0
            ],
            "bo": "SINGLE"
          },
          {
            "atomIds": [
              9,
              2
            ],
            "bo": "SINGLE"
          },
          {
            "atomIds": [
              10,
              4
            ],
            "bo": "SINGLE"
          },
          {
            "atomIds": [
              11,
              5
            ],
            "bo": "SINGLE"
          },
          {
            "atomIds": [
              12,
              6
            ],
            "bo": "SINGLE"
          },
          {
            "atomIds": [
              13,
              7
            ],
            "bo": "SINGLE"
          }
        ]
      },
      "vertexId": 128036,
      "buildingBlockId": 74,
      "buildingBlockType": "FRAGMENT",
      "isRCV": false,
      "properties": {
        "ATTACHMENT_POINTS": "1#Xlig:1:SINGLE:1.6157%4.1740%-3.9778 2#bridge:1:SINGLE:1.8005%5.9885%-1.6916 "
      },
      "uniquefyingPropertyKeys": [],
      "allowedMutationTypes": [
        "DELETE",
        "EXTEND",
        "CHANGEBRANCH",
        "CHANGELINK",
        "ADDLINK",
        "DELETELINK",
        "DELETECHAIN"
      ],
      "vertexType": "MolecularFragment"
    },
    {
      "lstAPs": [
        {
          "id": 473376,
          "atomPositionNumber": 0,
          "atomPositionNumberInMol": 36,
          "apClass": {
            "rule": "Xlig",
            "subClass": 1,
            "bndTyp": "SINGLE"
          },
          "dirVec": {
            "x": 1.6157,
            "y": 4.174,
            "z": -3.9778
          }
        },
        {
          "id": 473377,
          "atomPositionNumber": 1,
          "atomPositionNumberInMol": 37,
          "apClass": {
            "rule": "bridge",
            "subClass": 1,
            "bndTyp": "SINGLE"
          },
          "dirVec": {
            "x": 1.8005,
            "y": 5.9885,
            "z": -1.6916
          }
        }
      ],
      "lstSymAPs": [],
      "mol": {
        "atoms": [
          {
            "elSymbol": "N",
            "p3d": {
              "x": 3.2459,
              "y": 5.1712,
              "z": -3.4361
            }
          },
          {
            "elSymbol": "C",
            "p3d": {
              "x": 3.1168,
              "y": 5.9027,
              "z": -2.2546
            }
          },
          {
            "elSymbol": "C",
            "p3d": {
              "x": 4.3191,
              "y": 6.5056,
              "z": -1.9234
            }
          },
          {
            "elSymbol": "C",
            "p3d": {
              "x": 5.2572,
              "y": 6.1707,
              "z": -2.9298
            }
          },
          {
            "elSymbol": "C",
            "p3d": {
              "x": 6.582,
              "y": 6.5002,
              "z": -3.1678
            }
          },
          {
            "elSymbol": "C",
            "p3d": {
              "x": 7.1905,
              "y": 6.1037,
              "z": -4.3266
            }
          },
          {
            "elSymbol": "C",
            "p3d": {
              "x": 6.49,
              "y": 5.3293,
              "z": -5.2524
            }
          },
          {
            "elSymbol": "C",
            "p3d": {
              "x": 5.1723,
              "y": 4.9274,
              "z": -5.0458
            }
          },
          {
            "elSymbol": "C",
            "p3d": {
              "x": 4.5534,
              "y": 5.34,
              "z": -3.8694
            }
          },
          {
            "elSymbol": "H",
            "p3d": {
              "x": 4.4846,
              "y": 7.0468,
              "z": -1.1588
            }
          },
          {
            "elSymbol": "H",
            "p3d": {
              "x": 7.0676,
              "y": 7.004,
              "z": -2.5242
            }
          },
          {
            "elSymbol": "H",
            "p3d": {
              "x": 8.0904,
              "y": 6.3555,
              "z": -4.5017
            }
          },
          {
            "elSymbol": "H",
            "p3d": {
              "x": 6.9258,
              "y": 5.0667,
              "z": -6.0535
            }
          },
          {
            "elSymbol": "H",
            "p3d": {
              "x": 4.714,
              "y": 4.3942,
              "z": -5.6832
            }
          }
        ],
        "bonds": [
          {
            "atomIds": [
              1,
              0
            ],
            "bo": "SINGLE"
          },
          {
            "atomIds": [
              2,
              1
            ],
            "bo": "DOUBLE"
          },
          {
            "atomIds": [
              3,
              2
            ],
            "bo": "SINGLE"
          },
          {
            "atomIds": [
              3,
              8
            ],
            "bo": "SINGLE"
          },
          {
            "atomIds": [
              4,
              3
            ],
            "bo": "DOUBLE"
          },
          {
            "atomIds": [
              5,
              4
            ],
            "bo": "SINGLE"
          },
          {
            "atomIds": [
              6,
              5
            ],
            "bo": "DOUBLE"
          },
          {
            "atomIds": [
              7,
              6
            ],
            "bo": "SINGLE"
          },
          {
            "atomIds": [
              7,
              8
            ],
            "bo": "DOUBLE"
          },
          {
            "atomIds": [
              8,
              0
            ],
            "bo": "SINGLE"
          },
          {
            "atomIds": [
              9,
              2
            ],
            "bo": "SINGLE"
          },
          {
            "atomIds": [
              10,
              4
            ],
            "bo": "SINGLE"
          },
          {
            "atomIds": [
              11,
              5
            ],
            "bo": "SINGLE"
          },
          {
            "atomIds": [
              12,
              6
            ],
            "bo": "SINGLE"
          },
          {
            "atomIds": [
              13,
              7
            ],
            "bo": "SINGLE"
          }
        ]
      },
      "vertexId": 128037,
      "buildingBlockId": 74,
      "buildingBlockType": "FRAGMENT",
      "isRCV": false,
      "properties": {
        "ATTACHMENT_POINTS": "1#Xlig:1:SINGLE:1.6157%4.1740%-3.9778 2#bridge:1:SINGLE:1.8005%5.9885%-1.6916 "
      },
      "uniquefyingPropertyKeys": [],
      "allowedMutationTypes": [
        "DELETE",
        "EXTEND",
        "CHANGEBRANCH",
        "CHANGELINK",
        "ADDLINK",
        "DELETELINK",
        "DELETECHAIN"
      ],
      "vertexType": "MolecularFragment"
    },
    {
      "lstAPs": [
        {
          "id": 473378,
          "atomPositionNumber": 1,
          "atomPositionNumberInMol": 51,
          "apClass": {
            "rule": "bridge",
            "subClass": 0,
            "bndTyp": "SINGLE"
          },
          "dirVec": {
            "x": 0.4112,
            "y": -1.2101,
            "z": -0.19930000000000003
          }
        },
        {
          "id": 473379,
          "atomPositionNumber": 0,
          "atomPositionNumberInMol": 50,
          "apClass": {
            "rule": "bridge",
            "subClass": 0,
            "bndTyp": "SINGLE"
          },
          "dirVec": {
            "x": 0.41179999999999994,
            "y": 1.21,
            "z": -0.19930000000000003
          }
        }
      ],
      "lstSymAPs": [
        {
          "symIds": [
            0,
            1
          ]
        }
      ],
      "mol": {
        "atoms": [
          {
            "elSymbol": "C",
            "p3d": {
              "x": -1.0414,
              "y": 0.7696,
              "z": 0.0732
            }
          },
          {
            "elSymbol": "C",
            "p3d": {
              "x": -1.0417,
              "y": -0.7693,
              "z": 0.0732
            }
          },
          {
            "elSymbol": "H",
            "p3d": {
              "x": -1.6983,
              "y": 1.1431,
              "z": -0.7123
            }
          },
          {
            "elSymbol": "H",
            "p3d": {
              "x": -1.369,
              "y": 1.143,
              "z": 1.0434
            }
          },
          {
            "elSymbol": "H",
            "p3d": {
              "x": -1.3695,
              "y": -1.1425,
              "z": 1.0434
            }
          },
          {
            "elSymbol": "H",
            "p3d": {
              "x": -1.6988,
              "y": -1.1424,
              "z": -0.7123
            }
          }
        ],
        "bonds": [
          {
            "atomIds": [
              0,
              1
            ],
            "bo": "SINGLE"
          },
          {
            "atomIds": [
              0,
              2
            ],
            "bo": "SINGLE"
          },
          {
            "atomIds": [
              0,
              3
            ],
            "bo": "SINGLE"
          },
          {
            "atomIds": [
              1,
              4
            ],
            "bo": "SINGLE"
          },
          {
            "atomIds": [
              1,
              5
            ],
            "bo": "SINGLE"
          }
        ]
      },
      "vertexId": 128038,
      "buildingBlockId": 65,
      "buildingBlockType": "FRAGMENT",
      "isRCV": false,
      "properties": {
        "ATTACHMENT_POINTS": "1#bridge:0:SINGLE:0.4118%1.2100%-0.1993 2#bridge:0:SINGLE:0.4112%-1.2101%-0.1993 "
      },
      "uniquefyingPropertyKeys": [],
      "allowedMutationTypes": [
        "DELETE",
        "EXTEND",
        "CHANGEBRANCH",
        "CHANGELINK",
        "ADDLINK",
        "DELETELINK",
        "DELETECHAIN"
      ],
      "vertexType": "MolecularFragment"
    },
    {
      "lstAPs": [
        {
          "id": 473380,
          "atomPositionNumber": 1,
          "atomPositionNumberInMol": 30,
          "apClass": {
            "rule": "bridge",
            "subClass": 0,
            "bndTyp": "SINGLE"
          },
          "dirVec": {
            "x": 0.4112,
            "y": -1.2101,
            "z": -0.19930000000000003
          }
        },
        {
          "id": 473381,
          "atomPositionNumber": 0,
          "atomPositionNumberInMol": 29,
          "apClass": {
            "rule": "bridge",
            "subClass": 0,
            "bndTyp": "SINGLE"
          },
          "dirVec": {
            "x": 0.41179999999999994,
            "y": 1.21,
            "z": -0.19930000000000003
          }
        }
      ],
      "lstSymAPs": [
        {
          "symIds": [
            0,
            1
          ]
        }
      ],
      "mol": {
        "atoms": [
          {
            "elSymbol": "C",
            "p3d": {
              "x": -1.0414,
              "y": 0.7696,
              "z": 0.0732
            }
          },
          {
            "elSymbol": "C",
            "p3d": {
              "x": -1.0417,
              "y": -0.7693,
              "z": 0.0732
            }
          },
          {
            "elSymbol": "H",
            "p3d": {
              "x": -1.6983,
              "y": 1.1431,
              "z": -0.7123
            }
          },
          {
            "elSymbol": "H",
            "p3d": {
              "x": -1.369,
              "y": 1.143,
              "z": 1.0434
            }
          },
          {
            "elSymbol": "H",
            "p3d": {
              "x": -1.3695,
              "y": -1.1425,
              "z": 1.0434
            }
          },
          {
            "elSymbol": "H",
            "p3d": {
              "x": -1.6988,
              "y": -1.1424,
              "z": -0.7123
            }
          }
        ],
        "bonds": [
          {
            "atomIds": [
              0,
              1
            ],
            "bo": "SINGLE"
          },
          {
            "atomIds": [
              0,
              2
            ],
            "bo": "SINGLE"
          },
          {
            "atomIds": [
              0,
              3
            ],
            "bo": "SINGLE"
          },
          {
            "atomIds": [
              1,
              4
            ],
            "bo": "SINGLE"
          },
          {
            "atomIds": [
              1,
              5
            ],
            "bo": "SINGLE"
          }
        ]
      },
      "vertexId": 128039,
      "buildingBlockId": 65,
      "buildingBlockType": "FRAGMENT",
      "isRCV": false,
      "properties": {
        "ATTACHMENT_POINTS": "1#bridge:0:SINGLE:0.4118%1.2100%-0.1993 2#bridge:0:SINGLE:0.4112%-1.2101%-0.1993 "
      },
      "uniquefyingPropertyKeys": [],
      "allowedMutationTypes": [
        "DELETE",
        "EXTEND",
        "CHANGEBRANCH",
        "CHANGELINK",
        "ADDLINK",
        "DELETELINK",
        "DELETECHAIN"
      ],
      "vertexType": "MolecularFragment"
    },
    {
      "lstAPs": [
        {
          "id": 473382,
          "atomPositionNumber": 0,
          "atomPositionNumberInMol": 56,
          "apClass": {
            "rule": "ATminus",
            "subClass": 0,
            "bndTyp": "ANY"
          },
          "dirVec": {
            "x": 0.0109,
            "y": -0.0071,
            "z": 0.0026
          }
        }
      ],
      "lstSymAPs": [],
      "mol": {
        "atoms": [
          {
            "elSymbol": "ATM",
            "p3d": {
              "x": -0.0096,
              "y": 0.0045,
              "z": -0.0011
            }
          }
        ],
        "bonds": []
      },
      "vertexId": 128040,
      "buildingBlockId": 78,
      "buildingBlockType": "FRAGMENT",
      "isRCV": true,
      "properties": {
        "ATTACHMENT_POINTS": "1#ATminus:0:ANY:0.0109%-0.0071%0.0026 "
      },
      "uniquefyingPropertyKeys": [],
      "allowedMutationTypes": [
        "DELETE",
        "EXTEND",
        "CHANGEBRANCH",
        "CHANGELINK",
        "ADDLINK",
        "DELETELINK",
        "DELETECHAIN"
      ],
      "vertexType": "MolecularFragment"
    },
    {
      "lstAPs": [
        {
          "id": 473383,
          "atomPositionNumber": 0,
          "atomPositionNumberInMol": 35,
          "apClass": {
            "rule": "ATminus",
            "subClass": 0,
            "bndTyp": "ANY"
          },
          "dirVec": {
            "x": 0.0109,
            "y": -0.0071,
            "z": 0.0026
          }
        }
      ],
      "lstSymAPs": [],
      "mol": {
        "atoms": [
          {
            "elSymbol": "ATM",
            "p3d": {
              "x": -0.0096,
              "y": 0.0045,
              "z": -0.0011
            }
          }
        ],
        "bonds": []
      },
      "vertexId": 128041,
      "buildingBlockId": 78,
      "buildingBlockType": "FRAGMENT",
      "isRCV": true,
      "properties": {
        "ATTACHMENT_POINTS": "1#ATminus:0:ANY:0.0109%-0.0071%0.0026 "
      },
      "uniquefyingPropertyKeys": [],
      "allowedMutationTypes": [
        "DELETE",
        "EXTEND",
        "CHANGEBRANCH",
        "CHANGELINK",
        "ADDLINK",
        "DELETELINK",
        "DELETECHAIN"
      ],
      "vertexType": "MolecularFragment"
    },
    {
      "lstAPs": [
        {
          "id": 473448,
          "atomPositionNumber": 1,
          "atomPositionNumberInMol": 9,
          "apClass": {
            "rule": "SubRS",
            "subClass": 1,
            "bndTyp": "SINGLE"
          },
          "dirVec": {
            "x": 0.2985,
            "y": 0.384,
            "z": -0.6258
          }
        }
      ],
      "lstSymAPs": [],
      "mol": {
        "atoms": [
          {
            "elSymbol": "C",
            "p3d": {
              "x": -1.0244,
              "y": -0.2225,
              "z": 1.3991
            }
          },
          {
            "elSymbol": "C",
            "p3d": {
              "x": 0.3973,
              "y": -0.042,
              "z": 0.8195
            }
          },
          {
            "elSymbol": "H",
            "p3d": {
              "x": -1.5635,
              "y": -0.9908,
              "z": 0.8263
            }
          },
          {
            "elSymbol": "H",
            "p3d": {
              "x": -0.941,
              "y": -0.535,
              "z": 2.446
            }
          },
          {
            "elSymbol": "H",
            "p3d": {
              "x": -1.5586,
              "y": 0.7335,
              "z": 1.3382
            }
          },
          {
            "elSymbol": "H",
            "p3d": {
              "x": 0.9335,
              "y": 0.7221,
              "z": 1.4011
            }
          },
          {
            "elSymbol": "H",
            "p3d": {
              "x": 0.927,
              "y": -1.0102,
              "z": 0.9001
            }
          }
        ],
        "bonds": [
          {
            "atomIds": [
              0,
              1
            ],
            "bo": "SINGLE"
          },
          {
            "atomIds": [
              0,
              2
            ],
            "bo": "SINGLE"
          },
          {
            "atomIds": [
              0,
              3
            ],
            "bo": "SINGLE"
          },
          {
            "atomIds": [
              0,
              4
            ],
            "bo": "SINGLE"
          },
          {
            "atomIds": [
              1,
              5
            ],
            "bo": "SINGLE"
          },
          {
            "atomIds": [
              1,
              6
            ],
            "bo": "SINGLE"
          }
        ]
      },
      "vertexId": 516310,
      "buildingBlockId": 24,
      "buildingBlockType": "FRAGMENT",
      "isRCV": false,
      "properties": {
        "ATTACHMENT_POINTS": "2#SubRS:1:SINGLE:0.2985%0.3840%-0.6258 "
      },
      "uniquefyingPropertyKeys": [],
      "allowedMutationTypes": [
        "DELETE",
        "EXTEND",
        "CHANGEBRANCH",
        "CHANGELINK",
        "ADDLINK",
        "DELETELINK",
        "DELETECHAIN"
      ],
      "vertexType": "MolecularFragment"
    }
  ],
  "gEdges": [
    {
      "srcAPID": 473367,
      "trgAPID": 473371,
      "bondType": "SINGLE"
    },
    {
      "srcAPID": 473368,
      "trgAPID": 473372,
      "bondType": "SINGLE"
    },
    {
      "srcAPID": 473369,
      "trgAPID": 473373,
      "bondType": "SINGLE"
    },
    {
      "srcAPID": 473365,
      "trgAPID": 473374,
      "bondType": "SINGLE"
    },
    {
      "srcAPID": 473366,
      "trgAPID": 473376,
      "bondType": "SINGLE"
    },
    {
      "srcAPID": 473377,
      "trgAPID": 473378,
      "bondType": "SINGLE"
    },
    {
      "srcAPID": 473375,
      "trgAPID": 473380,
      "bondType": "SINGLE"
    },
    {
      "srcAPID": 473379,
      "trgAPID": 473382,
      "bondType": "SINGLE"
    },
    {
      "srcAPID": 473381,
      "trgAPID": 473383,
      "bondType": "SINGLE"
    },
    {
      "srcAPID": 473370,
      "trgAPID": 473448,
      "bondType": "SINGLE"
    }
  ],
  "gRings": [
    {
      "vertices": [
        128034,
        128033,
        128032,
        128037,
        128038,
        128040
      ],
      "bndTyp": "SINGLE"
    },
    {
      "vertices": [
        128035,
        128033,
        128032,
        128036,
        128039,
        128041
      ],
      "bndTyp": "SINGLE"
    }
  ],
  "symVertices": [
    {
      "symIds": [
        128034,
        128035
      ]
    },
    {
      "symIds": [
        128036,
        128037
      ]
    },
    {
      "symIds": [
        128038,
        128039
      ]
    },
    {
      "symIds": [
        128040,
        128041
      ]
    }
  ]
}

> <SMILES>
[Pt]12(C#O)[P](C(C([H])([H])[H])([H])[H])(C(C([H])([H])C=3N1C=4C(C3[H])=C(C(=C(C4[H])[H])[H])[H])([H])[H])C(C([H])([H])C=5N2C=6C(C5[H])=C(C(=C(C6[H])[H])[H])[H])([H])[H]

$$$$
