M00012212
  CDK     05032208453D

 45 49  0  0  0  0  0  0  0  0999 V2000
   -2.7988    0.0064    1.0857 Pt  0  0  0  0  0  0  0  0  0  0  0  0
   -4.7173    0.0086    1.3744 C   0  0  0  0  0  0  0  0  0  0  0  0
   -5.8501    0.0098    1.5231 O   0  0  0  0  0  0  0  0  0  0  0  0
   -0.0003   -1.3568   -0.4207 C   0  0  0  0  0  0  0  0  0  0  0  0
    0.6273   -0.7733   -1.4621 C   0  0  0  0  0  0  0  0  0  0  0  0
    1.2072   -1.5423   -2.6074 C   0  0  0  0  0  0  0  0  0  0  0  0
    0.3678   -1.9290   -3.2296 H   0  0  0  0  0  0  0  0  0  0  0  0
    1.7333   -2.4453   -2.2311 H   0  0  0  0  0  0  0  0  0  0  0  0
    2.1586   -0.7188   -3.4819 C   0  0  0  0  0  0  0  0  0  0  0  0
    3.1162   -0.5534   -2.9504 H   0  0  0  0  0  0  0  0  0  0  0  0
    2.4132   -1.2875   -4.3968 H   0  0  0  0  0  0  0  0  0  0  0  0
    1.5235    0.6243   -3.8509 C   0  0  0  0  0  0  0  0  0  0  0  0
    0.5637    0.4575   -4.3791 H   0  0  0  0  0  0  0  0  0  0  0  0
    2.1698    1.1735   -4.5619 H   0  0  0  0  0  0  0  0  0  0  0  0
    1.2894    1.4753   -2.5980 C   0  0  0  0  0  0  0  0  0  0  0  0
    2.2616    1.8712   -2.2275 H   0  0  0  0  0  0  0  0  0  0  0  0
    0.6890    2.3717   -2.8653 H   0  0  0  0  0  0  0  0  0  0  0  0
    0.6304    0.7320   -1.4788 C   0  0  0  0  0  0  0  0  0  0  0  0
   -0.0057    1.3399   -0.4566 C   0  0  0  0  0  0  0  0  0  0  0  0
   -0.5598    0.0051    0.7090 P   0  0  0  0  0  0  0  0  0  0  0  0
    0.3970    0.0316    2.2737 C   0  0  0  0  0  0  0  0  0  0  0  0
    1.7325    0.0742    4.7043 C   0  0  0  0  0  0  0  0  0  0  0  0
    1.7929    0.0166    2.2806 C   0  0  0  0  0  0  0  0  0  0  0  0
   -0.3463    0.0667    3.4556 C   0  0  0  0  0  0  0  0  0  0  0  0
    0.3353    0.0883    4.6799 C   0  0  0  0  0  0  0  0  0  0  0  0
    2.4613    0.0383    3.5088 C   0  0  0  0  0  0  0  0  0  0  0  0
    2.3753   -0.0120    1.3581 H   0  0  0  0  0  0  0  0  0  0  0  0
   -1.4462    0.0778    3.4531 H   0  0  0  0  0  0  0  0  0  0  0  0
   -0.2281    0.1159    5.6124 H   0  0  0  0  0  0  0  0  0  0  0  0
    3.5497    0.0271    3.5367 H   0  0  0  0  0  0  0  0  0  0  0  0
    2.2592    0.0910    5.6591 H   0  0  0  0  0  0  0  0  0  0  0  0
   -2.8567    2.3483    1.1579 S   0  0  0  0  0  0  0  0  0  0  0  0
   -1.9588    2.8827   -0.3408 C   0  0  0  0  0  0  0  0  0  0  0  0
   -0.4374    2.7356   -0.2122 C   0  0  0  0  0  0  0  0  0  0  0  0
   -2.2275    3.9482   -0.4835 H   0  0  0  0  0  0  0  0  0  0  0  0
   -2.3478    2.3348   -1.2183 H   0  0  0  0  0  0  0  0  0  0  0  0
    0.0532    3.4230   -0.9376 H   0  0  0  0  0  0  0  0  0  0  0  0
   -0.0983    3.0984    0.7863 H   0  0  0  0  0  0  0  0  0  0  0  0
   -2.8566   -2.3333    1.2053 S   0  0  0  0  0  0  0  0  0  0  0  0
   -1.9516   -2.8995   -0.2773 C   0  0  0  0  0  0  0  0  0  0  0  0
   -0.4311   -2.7469   -0.1446 C   0  0  0  0  0  0  0  0  0  0  0  0
   -2.3377   -2.3722   -1.1685 H   0  0  0  0  0  0  0  0  0  0  0  0
   -2.2181   -3.9684   -0.3972 H   0  0  0  0  0  0  0  0  0  0  0  0
   -0.0972   -3.0845    0.8645 H   0  0  0  0  0  0  0  0  0  0  0  0
    0.0640   -3.4508   -0.8508 H   0  0  0  0  0  0  0  0  0  0  0  0
  2  3  3  0  0  0  0
  1  2  1  0  0  0  0
  4  5  2  0  0  0  0
  5  6  1  0  0  0  0
  6  7  1  0  0  0  0
  8  6  1  0  0  0  0
  9  6  1  0  0  0  0
 10  9  1  0  0  0  0
 11  9  1  0  0  0  0
 12  9  1  0  0  0  0
 13 12  1  0  0  0  0
 14 12  1  0  0  0  0
 15 12  1  0  0  0  0
 15 18  1  0  0  0  0
 16 15  1  0  0  0  0
 17 15  1  0  0  0  0
 18  5  1  0  0  0  0
 19 18  2  0  0  0  0
 19 20  1  0  0  0  0
 20  4  1  0  0  0  0
  1 20  1  0  0  0  0
 21 24  1  0  0  0  0
 24 25  2  0  0  0  0
 22 25  1  0  0  0  0
 22 26  2  0  0  0  0
 23 26  1  0  0  0  0
 21 23  2  0  0  0  0
 25 29  1  0  0  0  0
 26 30  1  0  0  0  0
 22 31  1  0  0  0  0
 23 27  1  0  0  0  0
 24 28  1  0  0  0  0
 20 21  1  0  0  0  0
  1 32  1  0  0  0  0
 33 34  1  0  0  0  0
 33 35  1  0  0  0  0
 33 36  1  0  0  0  0
 34 37  1  0  0  0  0
 34 38  1  0  0  0  0
 32 33  1  0  0  0  0
  1 39  1  0  0  0  0
 40 41  1  0  0  0  0
 40 42  1  0  0  0  0
 40 43  1  0  0  0  0
 41 44  1  0  0  0  0
 41 45  1  0  0  0  0
 39 40  1  0  0  0  0
  4 41  1  0  0  0  0
 19 34  1  0  0  0  0
M  END
> <PM6_ENERGY>
30.518

> <UID>
ZNEWUANRWKOFTR-DGNOMTDPNA-L

> <FITNESS>
1.14252

> <GCODE>
23292

> <GraphENC>
23292 174086_1_0,174087_46_1,174088_78_1,174089_78_1,174090_74_1,174091_74_1,174092_66_1,174093_66_1,174094_79_1,174095_79_1,828324_29_1, 174086_2_174087_3_SINGLE_scaff:0_MPhosphole:1,174087_1_174088_0_SINGLE_LPhospholeSubAlpha:0_ATplus:0,174087_0_174089_0_SINGLE_LPhospholeSubAlpha:0_ATplus:0,174086_0_174090_0_SINGLE_Xlig:0_Xlig:1,174086_1_174091_0_SINGLE_Xlig:0_Xlig:1,174091_1_174092_1_SINGLE_bridge:1_bridge:0,174090_1_174093_1_SINGLE_bridge:1_bridge:0,174092_0_174094_0_SINGLE_bridge:0_ATminus:0,174093_0_174095_0_SINGLE_bridge:0_ATminus:0,174087_2_828324_0_SINGLE_LPhospholeSubR:0_SubArS:1, DENOPTIMRing [vertices=[174088_78_1, 174087_46_1, 174086_1_0, 174090_74_1, 174093_66_1, 174095_79_1]] DENOPTIMRing [vertices=[174089_78_1, 174087_46_1, 174086_1_0, 174091_74_1, 174092_66_1, 174094_79_1]] SymmetricSet [symIds=[174088, 174089]] SymmetricSet [symIds=[174090, 174091]] SymmetricSet [symIds=[174092, 174093]] SymmetricSet [symIds=[174094, 174095]] 

> <GraphJson>
{
  "graphId": 23292,
  "gVertices": [
    {
      "lstAPs": [
        {
          "id": 947161,
          "atomPositionNumber": 0,
          "atomPositionNumberInMol": 0,
          "apClass": {
            "rule": "Xlig",
            "subClass": 0,
            "bndTyp": "SINGLE"
          },
          "dirVec": {
            "x": -2.3339,
            "y": -0.0087,
            "z": 0.8172
          }
        },
        {
          "id": 947162,
          "atomPositionNumber": 0,
          "atomPositionNumberInMol": 0,
          "apClass": {
            "rule": "Xlig",
            "subClass": 0,
            "bndTyp": "SINGLE"
          },
          "dirVec": {
            "x": 2.336,
            "y": -5.0E-4,
            "z": 0.829
          }
        },
        {
          "id": 947163,
          "atomPositionNumber": 0,
          "atomPositionNumberInMol": 0,
          "apClass": {
            "rule": "scaff",
            "subClass": 0,
            "bndTyp": "SINGLE"
          },
          "dirVec": {
            "x": -0.0095,
            "y": 0.0046,
            "z": -1.7113
          }
        }
      ],
      "lstSymAPs": [
        {
          "symIds": [
            0,
            1
          ]
        }
      ],
      "mol": {
        "atoms": [
          {
            "elSymbol": "Pt",
            "p3d": {
              "x": -0.0098,
              "y": 0.0049,
              "z": 0.6289
            }
          },
          {
            "elSymbol": "C",
            "p3d": {
              "x": -6.0E-4,
              "y": 0.0016,
              "z": 2.5609
            }
          },
          {
            "elSymbol": "O",
            "p3d": {
              "x": 0.0025,
              "y": -0.0041,
              "z": 3.6974
            }
          },
          {
            "elSymbol": "Du",
            "p3d": {
              "x": -0.007,
              "y": 1.0013,
              "z": 0.6372
            }
          },
          {
            "elSymbol": "Du",
            "p3d": {
              "x": -0.0014,
              "y": 0.9902,
              "z": 2.5698
            }
          }
        ],
        "bonds": [
          {
            "atomIds": [
              1,
              2
            ],
            "bo": "TRIPLE"
          },
          {
            "atomIds": [
              0,
              1
            ],
            "bo": "SINGLE"
          },
          {
            "atomIds": [
              3,
              0
            ],
            "bo": "SINGLE"
          },
          {
            "atomIds": [
              4,
              1
            ],
            "bo": "SINGLE"
          }
        ]
      },
      "vertexId": 174086,
      "buildingBlockId": 0,
      "buildingBlockType": "SCAFFOLD",
      "isRCV": false,
      "properties": {
        "ATTACHMENT_POINTS": "1#Xlig:0:SINGLE:-2.3339%-0.0087%0.8172,Xlig:0:SINGLE:2.3360%-0.0005%0.8290,scaff:0:SINGLE:-0.0095%0.0046%-1.7113 "
      },
      "uniquefyingPropertyKeys": [],
      "allowedMutationTypes": [
        "DELETE",
        "EXTEND",
        "CHANGEBRANCH",
        "CHANGELINK",
        "ADDLINK",
        "DELETELINK",
        "DELETECHAIN"
      ],
      "vertexType": "MolecularFragment"
    },
    {
      "lstAPs": [
        {
          "id": 947164,
          "atomPositionNumber": 0,
          "atomPositionNumberInMol": 5,
          "apClass": {
            "rule": "LPhospholeSubAlpha",
            "subClass": 0,
            "bndTyp": "SINGLE"
          },
          "dirVec": {
            "x": -0.2290937897654505,
            "y": 2.845703088769645,
            "z": -2.160777178013941
          }
        },
        {
          "id": 947165,
          "atomPositionNumber": 15,
          "atomPositionNumberInMol": 20,
          "apClass": {
            "rule": "LPhospholeSubAlpha",
            "subClass": 0,
            "bndTyp": "SINGLE"
          },
          "dirVec": {
            "x": 1.433131987709915,
            "y": -2.382198919642542,
            "z": -2.3644685748284955
          }
        },
        {
          "id": 947166,
          "atomPositionNumber": 16,
          "atomPositionNumberInMol": 21,
          "apClass": {
            "rule": "LPhospholeSubR",
            "subClass": 0,
            "bndTyp": "SINGLE"
          },
          "dirVec": {
            "x": -1.5463847239590087,
            "y": -0.5771547632366629,
            "z": -2.390802741050389
          }
        },
        {
          "id": 947167,
          "atomPositionNumber": 16,
          "atomPositionNumberInMol": 21,
          "apClass": {
            "rule": "MPhosphole",
            "subClass": 1,
            "bndTyp": "SINGLE"
          },
          "dirVec": {
            "x": -0.009793254624231097,
            "y": 0.00489325462423156,
            "z": 0.5762815720879806
          }
        }
      ],
      "lstSymAPs": [
        {
          "symIds": [
            0,
            1
          ]
        }
      ],
      "mol": {
        "atoms": [
          {
            "elSymbol": "C",
            "p3d": {
              "x": 0.4856274899334586,
              "y": 1.5762109946729261,
              "z": -2.3981624458202697
            }
          },
          {
            "elSymbol": "C",
            "p3d": {
              "x": 1.611236365338333,
              "y": 1.373370494187636,
              "z": -3.1032865419711895
            }
          },
          {
            "elSymbol": "C",
            "p3d": {
              "x": 2.4357447337692792,
              "y": 2.454179591262286,
              "z": -3.7461023290113147
            }
          },
          {
            "elSymbol": "H",
            "p3d": {
              "x": 3.013329858302042,
              "y": 2.9492383411059415,
              "z": -2.965319966171508
            }
          },
          {
            "elSymbol": "H",
            "p3d": {
              "x": 1.7655347227917784,
              "y": 3.1882174911944157,
              "z": -4.177199710873893
            }
          },
          {
            "elSymbol": "C",
            "p3d": {
              "x": 3.3704725078088114,
              "y": 1.9349274128578793,
              "z": -4.81920613277933
            }
          },
          {
            "elSymbol": "H",
            "p3d": {
              "x": 2.8010380192699245,
              "y": 1.634671134744067,
              "z": -5.695306983546921
            }
          },
          {
            "elSymbol": "H",
            "p3d": {
              "x": 4.063166027586396,
              "y": 2.7363018238259396,
              "z": -5.1175729223249
            }
          },
          {
            "elSymbol": "C",
            "p3d": {
              "x": 4.158814796123447,
              "y": 0.7520137905885036,
              "z": -4.309093303393133
            }
          },
          {
            "elSymbol": "H",
            "p3d": {
              "x": 4.68771796173765,
              "y": 1.0256455622701075,
              "z": -3.4028599532400605
            }
          },
          {
            "elSymbol": "H",
            "p3d": {
              "x": 4.902904515496089,
              "y": 0.4695459391300859,
              "z": -5.061936143842859
            }
          },
          {
            "elSymbol": "C",
            "p3d": {
              "x": 3.2435442631862434,
              "y": -0.4253802058638042,
              "z": -4.056152107351634
            }
          },
          {
            "elSymbol": "H",
            "p3d": {
              "x": 2.8721188104648205,
              "y": -0.8087562236056864,
              "z": -4.996874012109391
            }
          },
          {
            "elSymbol": "H",
            "p3d": {
              "x": 3.7861506052430647,
              "y": -1.2138094024882655,
              "z": -3.5637274842164546
            }
          },
          {
            "elSymbol": "C",
            "p3d": {
              "x": 2.0355845146824265,
              "y": -0.050886930720320245,
              "z": -3.1866848377739334
            }
          },
          {
            "elSymbol": "C",
            "p3d": {
              "x": 1.303944062398438,
              "y": -0.9192241744201626,
              "z": -2.4789488560791755
            }
          },
          {
            "elSymbol": "P",
            "p3d": {
              "x": -0.009506745375768903,
              "y": 0.0046067453757684396,
              "z": -1.658681572087981
            }
          }
        ],
        "bonds": [
          {
            "atomIds": [
              0,
              1
            ],
            "bo": "DOUBLE"
          },
          {
            "atomIds": [
              1,
              2
            ],
            "bo": "SINGLE"
          },
          {
            "atomIds": [
              2,
              3
            ],
            "bo": "SINGLE"
          },
          {
            "atomIds": [
              4,
              2
            ],
            "bo": "SINGLE"
          },
          {
            "atomIds": [
              5,
              2
            ],
            "bo": "SINGLE"
          },
          {
            "atomIds": [
              6,
              5
            ],
            "bo": "SINGLE"
          },
          {
            "atomIds": [
              7,
              5
            ],
            "bo": "SINGLE"
          },
          {
            "atomIds": [
              8,
              5
            ],
            "bo": "SINGLE"
          },
          {
            "atomIds": [
              9,
              8
            ],
            "bo": "SINGLE"
          },
          {
            "atomIds": [
              10,
              8
            ],
            "bo": "SINGLE"
          },
          {
            "atomIds": [
              11,
              8
            ],
            "bo": "SINGLE"
          },
          {
            "atomIds": [
              11,
              14
            ],
            "bo": "SINGLE"
          },
          {
            "atomIds": [
              12,
              11
            ],
            "bo": "SINGLE"
          },
          {
            "atomIds": [
              13,
              11
            ],
            "bo": "SINGLE"
          },
          {
            "atomIds": [
              14,
              1
            ],
            "bo": "SINGLE"
          },
          {
            "atomIds": [
              15,
              14
            ],
            "bo": "DOUBLE"
          },
          {
            "atomIds": [
              15,
              16
            ],
            "bo": "SINGLE"
          },
          {
            "atomIds": [
              16,
              0
            ],
            "bo": "SINGLE"
          }
        ]
      },
      "vertexId": 174087,
      "buildingBlockId": 45,
      "buildingBlockType": "FRAGMENT",
      "isRCV": false,
      "properties": {
        "ATTACHMENT_POINTS": "1#LPhospholeSubAlpha:0:SINGLE:-0.2291%2.8457%-2.1608 16#LPhospholeSubAlpha:0:SINGLE:1.4331%-2.3822%-2.3645 17#LPhospholeSubR:0:SINGLE:-1.5464%-0.5772%-2.3908,MPhosphole:1:SINGLE:-0.0098%0.0049%0.5763 "
      },
      "uniquefyingPropertyKeys": [],
      "allowedMutationTypes": [
        "DELETE",
        "EXTEND",
        "CHANGEBRANCH",
        "CHANGELINK",
        "ADDLINK",
        "DELETELINK",
        "DELETECHAIN"
      ],
      "vertexType": "MolecularFragment"
    },
    {
      "lstAPs": [
        {
          "id": 947168,
          "atomPositionNumber": 0,
          "atomPositionNumberInMol": 22,
          "apClass": {
            "rule": "ATplus",
            "subClass": 0,
            "bndTyp": "ANY"
          },
          "dirVec": {
            "x": 1.433131987709915,
            "y": -2.382198919642542,
            "z": -2.3644685748284955
          }
        }
      ],
      "lstSymAPs": [],
      "mol": {
        "atoms": [
          {
            "elSymbol": "ATP",
            "p3d": {
              "x": 1.4349729282333077,
              "y": -2.4030464523100608,
              "z": -2.3628372196660403
            }
          }
        ],
        "bonds": []
      },
      "vertexId": 174088,
      "buildingBlockId": 77,
      "buildingBlockType": "FRAGMENT",
      "isRCV": true,
      "properties": {
        "ATTACHMENT_POINTS": "1#ATplus:0:ANY:1.4331%-2.3822%-2.3645 "
      },
      "uniquefyingPropertyKeys": [],
      "allowedMutationTypes": [
        "DELETE",
        "EXTEND",
        "CHANGEBRANCH",
        "CHANGELINK",
        "ADDLINK",
        "DELETELINK",
        "DELETECHAIN"
      ],
      "vertexType": "MolecularFragment"
    },
    {
      "lstAPs": [
        {
          "id": 947169,
          "atomPositionNumber": 0,
          "atomPositionNumberInMol": 23,
          "apClass": {
            "rule": "ATplus",
            "subClass": 0,
            "bndTyp": "ANY"
          },
          "dirVec": {
            "x": -0.22909378976545047,
            "y": 2.845703088769645,
            "z": -2.160777178013941
          }
        }
      ],
      "lstSymAPs": [],
      "mol": {
        "atoms": [
          {
            "elSymbol": "ATP",
            "p3d": {
              "x": -0.23925828749796996,
              "y": 2.863757328762798,
              "z": -2.1574011738499577
            }
          }
        ],
        "bonds": []
      },
      "vertexId": 174089,
      "buildingBlockId": 77,
      "buildingBlockType": "FRAGMENT",
      "isRCV": true,
      "properties": {
        "ATTACHMENT_POINTS": "1#ATplus:0:ANY:-0.2291%2.8457%-2.1608 "
      },
      "uniquefyingPropertyKeys": [],
      "allowedMutationTypes": [
        "DELETE",
        "EXTEND",
        "CHANGEBRANCH",
        "CHANGELINK",
        "ADDLINK",
        "DELETELINK",
        "DELETECHAIN"
      ],
      "vertexType": "MolecularFragment"
    },
    {
      "lstAPs": [
        {
          "id": 947170,
          "atomPositionNumber": 0,
          "atomPositionNumberInMol": 35,
          "apClass": {
            "rule": "Xlig",
            "subClass": 1,
            "bndTyp": "SINGLE"
          },
          "dirVec": {
            "x": -0.102,
            "y": 0.0185,
            "z": -1.0265
          }
        },
        {
          "id": 947171,
          "atomPositionNumber": 0,
          "atomPositionNumberInMol": 35,
          "apClass": {
            "rule": "bridge",
            "subClass": 1,
            "bndTyp": "SINGLE"
          },
          "dirVec": {
            "x": -0.626,
            "y": 2.4866,
            "z": 0.7805
          }
        }
      ],
      "lstSymAPs": [],
      "mol": {
        "atoms": [
          {
            "elSymbol": "S",
            "p3d": {
              "x": -0.3267,
              "y": 2.3403,
              "z": -1.0022
            }
          }
        ],
        "bonds": []
      },
      "vertexId": 174090,
      "buildingBlockId": 73,
      "buildingBlockType": "FRAGMENT",
      "isRCV": false,
      "properties": {
        "ATTACHMENT_POINTS": "1#Xlig:1:SINGLE:-0.1020%0.0185%-1.0265,bridge:1:SINGLE:-0.6260%2.4866%0.7805 "
      },
      "uniquefyingPropertyKeys": [],
      "allowedMutationTypes": [
        "DELETE",
        "EXTEND",
        "CHANGEBRANCH",
        "CHANGELINK",
        "ADDLINK",
        "DELETELINK",
        "DELETECHAIN"
      ],
      "vertexType": "MolecularFragment"
    },
    {
      "lstAPs": [
        {
          "id": 947172,
          "atomPositionNumber": 0,
          "atomPositionNumberInMol": 43,
          "apClass": {
            "rule": "Xlig",
            "subClass": 1,
            "bndTyp": "SINGLE"
          },
          "dirVec": {
            "x": -0.102,
            "y": 0.0185,
            "z": -1.0265
          }
        },
        {
          "id": 947173,
          "atomPositionNumber": 0,
          "atomPositionNumberInMol": 43,
          "apClass": {
            "rule": "bridge",
            "subClass": 1,
            "bndTyp": "SINGLE"
          },
          "dirVec": {
            "x": -0.626,
            "y": 2.4866,
            "z": 0.7805
          }
        }
      ],
      "lstSymAPs": [],
      "mol": {
        "atoms": [
          {
            "elSymbol": "S",
            "p3d": {
              "x": -0.3267,
              "y": 2.3403,
              "z": -1.0022
            }
          }
        ],
        "bonds": []
      },
      "vertexId": 174091,
      "buildingBlockId": 73,
      "buildingBlockType": "FRAGMENT",
      "isRCV": false,
      "properties": {
        "ATTACHMENT_POINTS": "1#Xlig:1:SINGLE:-0.1020%0.0185%-1.0265,bridge:1:SINGLE:-0.6260%2.4866%0.7805 "
      },
      "uniquefyingPropertyKeys": [],
      "allowedMutationTypes": [
        "DELETE",
        "EXTEND",
        "CHANGEBRANCH",
        "CHANGELINK",
        "ADDLINK",
        "DELETELINK",
        "DELETECHAIN"
      ],
      "vertexType": "MolecularFragment"
    },
    {
      "lstAPs": [
        {
          "id": 947174,
          "atomPositionNumber": 1,
          "atomPositionNumberInMol": 45,
          "apClass": {
            "rule": "bridge",
            "subClass": 0,
            "bndTyp": "SINGLE"
          },
          "dirVec": {
            "x": 0.4112,
            "y": -1.2101,
            "z": -0.19930000000000003
          }
        },
        {
          "id": 947175,
          "atomPositionNumber": 0,
          "atomPositionNumberInMol": 44,
          "apClass": {
            "rule": "bridge",
            "subClass": 0,
            "bndTyp": "SINGLE"
          },
          "dirVec": {
            "x": 0.41179999999999994,
            "y": 1.21,
            "z": -0.19930000000000003
          }
        }
      ],
      "lstSymAPs": [
        {
          "symIds": [
            0,
            1
          ]
        }
      ],
      "mol": {
        "atoms": [
          {
            "elSymbol": "C",
            "p3d": {
              "x": -1.0414,
              "y": 0.7696,
              "z": 0.0732
            }
          },
          {
            "elSymbol": "C",
            "p3d": {
              "x": -1.0417,
              "y": -0.7693,
              "z": 0.0732
            }
          },
          {
            "elSymbol": "H",
            "p3d": {
              "x": -1.6983,
              "y": 1.1431,
              "z": -0.7123
            }
          },
          {
            "elSymbol": "H",
            "p3d": {
              "x": -1.369,
              "y": 1.143,
              "z": 1.0434
            }
          },
          {
            "elSymbol": "H",
            "p3d": {
              "x": -1.3695,
              "y": -1.1425,
              "z": 1.0434
            }
          },
          {
            "elSymbol": "H",
            "p3d": {
              "x": -1.6988,
              "y": -1.1424,
              "z": -0.7123
            }
          }
        ],
        "bonds": [
          {
            "atomIds": [
              0,
              1
            ],
            "bo": "SINGLE"
          },
          {
            "atomIds": [
              0,
              2
            ],
            "bo": "SINGLE"
          },
          {
            "atomIds": [
              0,
              3
            ],
            "bo": "SINGLE"
          },
          {
            "atomIds": [
              1,
              4
            ],
            "bo": "SINGLE"
          },
          {
            "atomIds": [
              1,
              5
            ],
            "bo": "SINGLE"
          }
        ]
      },
      "vertexId": 174092,
      "buildingBlockId": 65,
      "buildingBlockType": "FRAGMENT",
      "isRCV": false,
      "properties": {
        "ATTACHMENT_POINTS": "1#bridge:0:SINGLE:0.4118%1.2100%-0.1993 2#bridge:0:SINGLE:0.4112%-1.2101%-0.1993 "
      },
      "uniquefyingPropertyKeys": [],
      "allowedMutationTypes": [
        "DELETE",
        "EXTEND",
        "CHANGEBRANCH",
        "CHANGELINK",
        "ADDLINK",
        "DELETELINK",
        "DELETECHAIN"
      ],
      "vertexType": "MolecularFragment"
    },
    {
      "lstAPs": [
        {
          "id": 947176,
          "atomPositionNumber": 1,
          "atomPositionNumberInMol": 37,
          "apClass": {
            "rule": "bridge",
            "subClass": 0,
            "bndTyp": "SINGLE"
          },
          "dirVec": {
            "x": 0.4112,
            "y": -1.2101,
            "z": -0.19930000000000003
          }
        },
        {
          "id": 947177,
          "atomPositionNumber": 0,
          "atomPositionNumberInMol": 36,
          "apClass": {
            "rule": "bridge",
            "subClass": 0,
            "bndTyp": "SINGLE"
          },
          "dirVec": {
            "x": 0.41179999999999994,
            "y": 1.21,
            "z": -0.19930000000000003
          }
        }
      ],
      "lstSymAPs": [
        {
          "symIds": [
            0,
            1
          ]
        }
      ],
      "mol": {
        "atoms": [
          {
            "elSymbol": "C",
            "p3d": {
              "x": -1.0414,
              "y": 0.7696,
              "z": 0.0732
            }
          },
          {
            "elSymbol": "C",
            "p3d": {
              "x": -1.0417,
              "y": -0.7693,
              "z": 0.0732
            }
          },
          {
            "elSymbol": "H",
            "p3d": {
              "x": -1.6983,
              "y": 1.1431,
              "z": -0.7123
            }
          },
          {
            "elSymbol": "H",
            "p3d": {
              "x": -1.369,
              "y": 1.143,
              "z": 1.0434
            }
          },
          {
            "elSymbol": "H",
            "p3d": {
              "x": -1.3695,
              "y": -1.1425,
              "z": 1.0434
            }
          },
          {
            "elSymbol": "H",
            "p3d": {
              "x": -1.6988,
              "y": -1.1424,
              "z": -0.7123
            }
          }
        ],
        "bonds": [
          {
            "atomIds": [
              0,
              1
            ],
            "bo": "SINGLE"
          },
          {
            "atomIds": [
              0,
              2
            ],
            "bo": "SINGLE"
          },
          {
            "atomIds": [
              0,
              3
            ],
            "bo": "SINGLE"
          },
          {
            "atomIds": [
              1,
              4
            ],
            "bo": "SINGLE"
          },
          {
            "atomIds": [
              1,
              5
            ],
            "bo": "SINGLE"
          }
        ]
      },
      "vertexId": 174093,
      "buildingBlockId": 65,
      "buildingBlockType": "FRAGMENT",
      "isRCV": false,
      "properties": {
        "ATTACHMENT_POINTS": "1#bridge:0:SINGLE:0.4118%1.2100%-0.1993 2#bridge:0:SINGLE:0.4112%-1.2101%-0.1993 "
      },
      "uniquefyingPropertyKeys": [],
      "allowedMutationTypes": [
        "DELETE",
        "EXTEND",
        "CHANGEBRANCH",
        "CHANGELINK",
        "ADDLINK",
        "DELETELINK",
        "DELETECHAIN"
      ],
      "vertexType": "MolecularFragment"
    },
    {
      "lstAPs": [
        {
          "id": 947178,
          "atomPositionNumber": 0,
          "atomPositionNumberInMol": 50,
          "apClass": {
            "rule": "ATminus",
            "subClass": 0,
            "bndTyp": "ANY"
          },
          "dirVec": {
            "x": 0.0109,
            "y": -0.0071,
            "z": 0.0026
          }
        }
      ],
      "lstSymAPs": [],
      "mol": {
        "atoms": [
          {
            "elSymbol": "ATM",
            "p3d": {
              "x": -0.0096,
              "y": 0.0045,
              "z": -0.0011
            }
          }
        ],
        "bonds": []
      },
      "vertexId": 174094,
      "buildingBlockId": 78,
      "buildingBlockType": "FRAGMENT",
      "isRCV": true,
      "properties": {
        "ATTACHMENT_POINTS": "1#ATminus:0:ANY:0.0109%-0.0071%0.0026 "
      },
      "uniquefyingPropertyKeys": [],
      "allowedMutationTypes": [
        "DELETE",
        "EXTEND",
        "CHANGEBRANCH",
        "CHANGELINK",
        "ADDLINK",
        "DELETELINK",
        "DELETECHAIN"
      ],
      "vertexType": "MolecularFragment"
    },
    {
      "lstAPs": [
        {
          "id": 947179,
          "atomPositionNumber": 0,
          "atomPositionNumberInMol": 42,
          "apClass": {
            "rule": "ATminus",
            "subClass": 0,
            "bndTyp": "ANY"
          },
          "dirVec": {
            "x": 0.0109,
            "y": -0.0071,
            "z": 0.0026
          }
        }
      ],
      "lstSymAPs": [],
      "mol": {
        "atoms": [
          {
            "elSymbol": "ATM",
            "p3d": {
              "x": -0.0096,
              "y": 0.0045,
              "z": -0.0011
            }
          }
        ],
        "bonds": []
      },
      "vertexId": 174095,
      "buildingBlockId": 78,
      "buildingBlockType": "FRAGMENT",
      "isRCV": true,
      "properties": {
        "ATTACHMENT_POINTS": "1#ATminus:0:ANY:0.0109%-0.0071%0.0026 "
      },
      "uniquefyingPropertyKeys": [],
      "allowedMutationTypes": [
        "DELETE",
        "EXTEND",
        "CHANGEBRANCH",
        "CHANGELINK",
        "ADDLINK",
        "DELETELINK",
        "DELETECHAIN"
      ],
      "vertexType": "MolecularFragment"
    },
    {
      "lstAPs": [
        {
          "id": 947240,
          "atomPositionNumber": 0,
          "atomPositionNumberInMol": 24,
          "apClass": {
            "rule": "SubArS",
            "subClass": 1,
            "bndTyp": "SINGLE"
          },
          "dirVec": {
            "x": 0.2973,
            "y": 0.3873,
            "z": -0.6389
          }
        }
      ],
      "lstSymAPs": [],
      "mol": {
        "atoms": [
          {
            "elSymbol": "C",
            "p3d": {
              "x": 1.6995,
              "y": 0.5593,
              "z": -1.2083
            }
          },
          {
            "elSymbol": "C",
            "p3d": {
              "x": 4.2563,
              "y": 0.8754,
              "z": -2.2592
            }
          },
          {
            "elSymbol": "C",
            "p3d": {
              "x": 2.3334,
              "y": 1.79,
              "z": -1.1338
            }
          },
          {
            "elSymbol": "C",
            "p3d": {
              "x": 2.3422,
              "y": -0.5107,
              "z": -1.8125
            }
          },
          {
            "elSymbol": "C",
            "p3d": {
              "x": 3.612,
              "y": -0.3527,
              "z": -2.3321
            }
          },
          {
            "elSymbol": "C",
            "p3d": {
              "x": 3.6062,
              "y": 1.9513,
              "z": -1.6526
            }
          },
          {
            "elSymbol": "H",
            "p3d": {
              "x": 1.833,
              "y": 2.6461,
              "z": -0.6488
            }
          },
          {
            "elSymbol": "H",
            "p3d": {
              "x": 1.8361,
              "y": -1.4773,
              "z": -1.887
            }
          },
          {
            "elSymbol": "H",
            "p3d": {
              "x": 4.115,
              "y": -1.2043,
              "z": -2.8152
            }
          },
          {
            "elSymbol": "H",
            "p3d": {
              "x": 4.1097,
              "y": 2.9214,
              "z": -1.5842
            }
          },
          {
            "elSymbol": "H",
            "p3d": {
              "x": 5.2498,
              "y": 0.9926,
              "z": -2.665
            }
          }
        ],
        "bonds": [
          {
            "atomIds": [
              0,
              3
            ],
            "bo": "SINGLE"
          },
          {
            "atomIds": [
              3,
              4
            ],
            "bo": "DOUBLE"
          },
          {
            "atomIds": [
              1,
              4
            ],
            "bo": "SINGLE"
          },
          {
            "atomIds": [
              1,
              5
            ],
            "bo": "DOUBLE"
          },
          {
            "atomIds": [
              2,
              5
            ],
            "bo": "SINGLE"
          },
          {
            "atomIds": [
              0,
              2
            ],
            "bo": "DOUBLE"
          },
          {
            "atomIds": [
              4,
              8
            ],
            "bo": "SINGLE"
          },
          {
            "atomIds": [
              5,
              9
            ],
            "bo": "SINGLE"
          },
          {
            "atomIds": [
              1,
              10
            ],
            "bo": "SINGLE"
          },
          {
            "atomIds": [
              2,
              6
            ],
            "bo": "SINGLE"
          },
          {
            "atomIds": [
              3,
              7
            ],
            "bo": "SINGLE"
          }
        ]
      },
      "vertexId": 828324,
      "buildingBlockId": 28,
      "buildingBlockType": "FRAGMENT",
      "isRCV": false,
      "properties": {
        "ATTACHMENT_POINTS": "1#SubArS:1:SINGLE:0.2973%0.3873%-0.6389 "
      },
      "uniquefyingPropertyKeys": [],
      "allowedMutationTypes": [
        "DELETE",
        "EXTEND",
        "CHANGEBRANCH",
        "CHANGELINK",
        "ADDLINK",
        "DELETELINK",
        "DELETECHAIN"
      ],
      "vertexType": "MolecularFragment"
    }
  ],
  "gEdges": [
    {
      "srcAPID": 947163,
      "trgAPID": 947167,
      "bondType": "SINGLE"
    },
    {
      "srcAPID": 947165,
      "trgAPID": 947168,
      "bondType": "SINGLE"
    },
    {
      "srcAPID": 947164,
      "trgAPID": 947169,
      "bondType": "SINGLE"
    },
    {
      "srcAPID": 947161,
      "trgAPID": 947170,
      "bondType": "SINGLE"
    },
    {
      "srcAPID": 947162,
      "trgAPID": 947172,
      "bondType": "SINGLE"
    },
    {
      "srcAPID": 947173,
      "trgAPID": 947175,
      "bondType": "SINGLE"
    },
    {
      "srcAPID": 947171,
      "trgAPID": 947177,
      "bondType": "SINGLE"
    },
    {
      "srcAPID": 947174,
      "trgAPID": 947178,
      "bondType": "SINGLE"
    },
    {
      "srcAPID": 947176,
      "trgAPID": 947179,
      "bondType": "SINGLE"
    },
    {
      "srcAPID": 947166,
      "trgAPID": 947240,
      "bondType": "SINGLE"
    }
  ],
  "gRings": [
    {
      "vertices": [
        174088,
        174087,
        174086,
        174090,
        174093,
        174095
      ],
      "bndTyp": "SINGLE"
    },
    {
      "vertices": [
        174089,
        174087,
        174086,
        174091,
        174092,
        174094
      ],
      "bndTyp": "SINGLE"
    }
  ],
  "symVertices": [
    {
      "symIds": [
        174088,
        174089
      ]
    },
    {
      "symIds": [
        174090,
        174091
      ]
    },
    {
      "symIds": [
        174092,
        174093
      ]
    },
    {
      "symIds": [
        174094,
        174095
      ]
    }
  ]
}

> <SMILES>
[Pt]12(C#O)[P]3(C(=C4C(C(C(C(C4=C3C(C([H])([H])S1)([H])[H])([H])[H])([H])[H])([H])[H])([H])[H])C(C([H])([H])S2)([H])[H])C=5C(=C(C(=C(C5[H])[H])[H])[H])[H]

$$$$
