M00020694
  CDK     05032209263D

 48 52  0  0  0  0  0  0  0  0999 V2000
   -2.3429   -0.0013   -0.1842 Pt  0  0  0  0  0  0  0  0  0  0  0  0
   -4.2853   -0.0017   -0.2915 C   0  0  0  0  0  0  0  0  0  0  0  0
   -5.4255   -0.0018   -0.3350 O   0  0  0  0  0  0  0  0  0  0  0  0
   -0.0556   -0.0003   -0.0519 P   0  0  0  0  0  0  0  0  0  0  0  0
    0.7163    1.3501    1.0027 C   0  0  0  0  0  0  0  0  0  0  0  0
    1.3547    0.7424    2.0179 C   0  0  0  0  0  0  0  0  0  0  0  0
    1.3551   -0.7343    2.0207 C   0  0  0  0  0  0  0  0  0  0  0  0
    0.7170   -1.3462    1.0080 C   0  0  0  0  0  0  0  0  0  0  0  0
    1.8777    1.2684    2.8140 H   0  0  0  0  0  0  0  0  0  0  0  0
    1.8784   -1.2570    2.8189 H   0  0  0  0  0  0  0  0  0  0  0  0
    0.2666    1.2626   -2.4916 C   0  0  0  0  0  0  0  0  0  0  0  0
    0.7232   -0.0045   -1.7837 C   0  0  0  0  0  0  0  0  0  0  0  0
    0.2573   -1.2703   -2.4879 C   0  0  0  0  0  0  0  0  0  0  0  0
    0.5952   -2.1974   -1.9992 H   0  0  0  0  0  0  0  0  0  0  0  0
    0.6506   -1.3044   -3.5149 H   0  0  0  0  0  0  0  0  0  0  0  0
   -0.8401   -1.3416   -2.5863 H   0  0  0  0  0  0  0  0  0  0  0  0
    0.6602    1.2909   -3.5185 H   0  0  0  0  0  0  0  0  0  0  0  0
   -0.8303    1.3416   -2.5903 H   0  0  0  0  0  0  0  0  0  0  0  0
    0.6109    2.1886   -2.0054 H   0  0  0  0  0  0  0  0  0  0  0  0
    1.8378   -0.0083   -1.6867 H   0  0  0  0  0  0  0  0  0  0  0  0
   -2.6334   -2.3184   -0.2708 S   0  0  0  0  0  0  0  0  0  0  0  0
   -1.8149   -2.9041    1.2494 C   0  0  0  0  0  0  0  0  0  0  0  0
   -0.5314   -3.5203    0.8078 C   0  0  0  0  0  0  0  0  0  0  0  0
   -0.5018   -4.8897    0.4862 C   0  0  0  0  0  0  0  0  0  0  0  0
    0.6754   -5.4966    0.0513 C   0  0  0  0  0  0  0  0  0  0  0  0
    1.8503   -4.7449   -0.0666 C   0  0  0  0  0  0  0  0  0  0  0  0
    1.8391   -3.3879    0.2513 C   0  0  0  0  0  0  0  0  0  0  0  0
    0.6536   -2.7653    0.6857 C   0  0  0  0  0  0  0  0  0  0  0  0
   -1.6863   -2.0808    1.9751 H   0  0  0  0  0  0  0  0  0  0  0  0
   -2.4904   -3.6353    1.7384 H   0  0  0  0  0  0  0  0  0  0  0  0
   -1.4156   -5.4794    0.5671 H   0  0  0  0  0  0  0  0  0  0  0  0
    0.6804   -6.5569   -0.1986 H   0  0  0  0  0  0  0  0  0  0  0  0
    2.7696   -5.2193   -0.4046 H   0  0  0  0  0  0  0  0  0  0  0  0
    2.7533   -2.8028    0.1637 H   0  0  0  0  0  0  0  0  0  0  0  0
   -2.6324    2.3153   -0.2850 S   0  0  0  0  0  0  0  0  0  0  0  0
   -1.8170    2.9079    1.2341 C   0  0  0  0  0  0  0  0  0  0  0  0
   -0.5330    3.5228    0.7923 C   0  0  0  0  0  0  0  0  0  0  0  0
   -0.5034    4.8911    0.4656 C   0  0  0  0  0  0  0  0  0  0  0  0
    0.6742    5.4969    0.0305 C   0  0  0  0  0  0  0  0  0  0  0  0
    1.8498    4.7454   -0.0823 C   0  0  0  0  0  0  0  0  0  0  0  0
    1.8387    3.3896    0.2407 C   0  0  0  0  0  0  0  0  0  0  0  0
    0.6526    2.7679    0.6752 C   0  0  0  0  0  0  0  0  0  0  0  0
   -2.4937    3.6408    1.7189 H   0  0  0  0  0  0  0  0  0  0  0  0
   -1.6892    2.0877    1.9636 H   0  0  0  0  0  0  0  0  0  0  0  0
   -1.4177    5.4806    0.5426 H   0  0  0  0  0  0  0  0  0  0  0  0
    0.6792    6.5563   -0.2233 H   0  0  0  0  0  0  0  0  0  0  0  0
    2.7695    5.2190   -0.4203 H   0  0  0  0  0  0  0  0  0  0  0  0
    2.7533    2.8046    0.1570 H   0  0  0  0  0  0  0  0  0  0  0  0
  2  3  3  0  0  0  0
  1  2  1  0  0  0  0
  5  4  1  0  0  0  0
  6  5  2  0  0  0  0
  7  6  1  0  0  0  0
  7  8  2  0  0  0  0
  8  4  1  0  0  0  0
  6  9  1  0  0  0  0
  7 10  1  0  0  0  0
  1  4  1  0  0  0  0
 11 12  1  0  0  0  0
 12 13  1  0  0  0  0
 13 14  1  0  0  0  0
 13 15  1  0  0  0  0
 13 16  1  0  0  0  0
 11 17  1  0  0  0  0
 11 18  1  0  0  0  0
 11 19  1  0  0  0  0
 12 20  1  0  0  0  0
  4 12  1  0  0  0  0
  1 21  1  0  0  0  0
 22 23  1  0  0  0  0
 23 24  1  0  0  0  0
 24 25  2  0  0  0  0
 25 26  1  0  0  0  0
 26 27  2  0  0  0  0
 27 28  1  0  0  0  0
 23 28  2  0  0  0  0
 22 29  1  0  0  0  0
 22 30  1  0  0  0  0
 24 31  1  0  0  0  0
 25 32  1  0  0  0  0
 26 33  1  0  0  0  0
 27 34  1  0  0  0  0
 21 22  1  0  0  0  0
  1 35  1  0  0  0  0
 36 37  1  0  0  0  0
 37 38  1  0  0  0  0
 38 39  2  0  0  0  0
 39 40  1  0  0  0  0
 40 41  2  0  0  0  0
 41 42  1  0  0  0  0
 37 42  2  0  0  0  0
 36 43  1  0  0  0  0
 36 44  1  0  0  0  0
 38 45  1  0  0  0  0
 39 46  1  0  0  0  0
 40 47  1  0  0  0  0
 41 48  1  0  0  0  0
 35 36  1  0  0  0  0
  8 28  1  0  0  0  0
  5 42  1  0  0  0  0
M  END
> <PM6_ENERGY>
150.257

> <UID>
URIQJUNTGJQVIL-OCCFEQKGNA-L

> <FITNESS>
1.14103

> <GCODE>
31774

> <GraphENC>
31774 190088_1_0,190089_48_1,190090_78_1,190091_78_1,190092_74_1,190093_74_1,190094_68_1,190095_68_1,190096_79_1,190097_79_1,1097778_26_1, 190088_2_190089_1_SINGLE_scaff:0_MPhosphole:1,190089_3_190090_0_SINGLE_LPhospholeSubAlpha:0_ATplus:0,190089_2_190091_0_SINGLE_LPhospholeSubAlpha:0_ATplus:0,190088_1_190092_0_SINGLE_Xlig:0_Xlig:1,190088_0_190093_0_SINGLE_Xlig:0_Xlig:1,190092_1_190094_0_SINGLE_bridge:1_bridge:0,190093_1_190095_0_SINGLE_bridge:1_bridge:0,190094_1_190096_0_SINGLE_bridge:0_ATminus:0,190095_1_190097_0_SINGLE_bridge:0_ATminus:0,190089_0_1097778_0_SINGLE_LPhospholeSubR:0_SubRM:1, DENOPTIMRing [vertices=[190090_78_1, 190089_48_1, 190088_1_0, 190092_74_1, 190094_68_1, 190096_79_1]] DENOPTIMRing [vertices=[190091_78_1, 190089_48_1, 190088_1_0, 190093_74_1, 190095_68_1, 190097_79_1]] SymmetricSet [symIds=[190090, 190091]] SymmetricSet [symIds=[190092, 190093]] SymmetricSet [symIds=[190094, 190095]] SymmetricSet [symIds=[190096, 190097]] 

> <GraphJson>
{
  "graphId": 31774,
  "gVertices": [
    {
      "lstAPs": [
        {
          "id": 1381897,
          "atomPositionNumber": 0,
          "atomPositionNumberInMol": 0,
          "apClass": {
            "rule": "Xlig",
            "subClass": 0,
            "bndTyp": "SINGLE"
          },
          "dirVec": {
            "x": -2.3339,
            "y": -0.0087,
            "z": 0.8172
          }
        },
        {
          "id": 1381898,
          "atomPositionNumber": 0,
          "atomPositionNumberInMol": 0,
          "apClass": {
            "rule": "Xlig",
            "subClass": 0,
            "bndTyp": "SINGLE"
          },
          "dirVec": {
            "x": 2.336,
            "y": -5.0E-4,
            "z": 0.829
          }
        },
        {
          "id": 1381899,
          "atomPositionNumber": 0,
          "atomPositionNumberInMol": 0,
          "apClass": {
            "rule": "scaff",
            "subClass": 0,
            "bndTyp": "SINGLE"
          },
          "dirVec": {
            "x": -0.0095,
            "y": 0.0046,
            "z": -1.7113
          }
        }
      ],
      "lstSymAPs": [
        {
          "symIds": [
            0,
            1
          ]
        }
      ],
      "mol": {
        "atoms": [
          {
            "elSymbol": "Pt",
            "p3d": {
              "x": -0.0098,
              "y": 0.0049,
              "z": 0.6289
            }
          },
          {
            "elSymbol": "C",
            "p3d": {
              "x": -6.0E-4,
              "y": 0.0016,
              "z": 2.5609
            }
          },
          {
            "elSymbol": "O",
            "p3d": {
              "x": 0.0025,
              "y": -0.0041,
              "z": 3.6974
            }
          },
          {
            "elSymbol": "Du",
            "p3d": {
              "x": -0.007,
              "y": 1.0013,
              "z": 0.6372
            }
          },
          {
            "elSymbol": "Du",
            "p3d": {
              "x": -0.0014,
              "y": 0.9902,
              "z": 2.5698
            }
          }
        ],
        "bonds": [
          {
            "atomIds": [
              1,
              2
            ],
            "bo": "TRIPLE"
          },
          {
            "atomIds": [
              0,
              1
            ],
            "bo": "SINGLE"
          },
          {
            "atomIds": [
              3,
              0
            ],
            "bo": "SINGLE"
          },
          {
            "atomIds": [
              4,
              1
            ],
            "bo": "SINGLE"
          }
        ]
      },
      "vertexId": 190088,
      "buildingBlockId": 0,
      "buildingBlockType": "SCAFFOLD",
      "isRCV": false,
      "properties": {
        "ATTACHMENT_POINTS": "1#Xlig:0:SINGLE:-2.3339%-0.0087%0.8172,Xlig:0:SINGLE:2.3360%-0.0005%0.8290,scaff:0:SINGLE:-0.0095%0.0046%-1.7113 "
      },
      "uniquefyingPropertyKeys": [],
      "allowedMutationTypes": [
        "DELETE",
        "EXTEND",
        "CHANGEBRANCH",
        "CHANGELINK",
        "ADDLINK",
        "DELETELINK",
        "DELETECHAIN"
      ],
      "vertexType": "MolecularFragment"
    },
    {
      "lstAPs": [
        {
          "id": 1381900,
          "atomPositionNumber": 0,
          "atomPositionNumberInMol": 5,
          "apClass": {
            "rule": "LPhospholeSubR",
            "subClass": 0,
            "bndTyp": "SINGLE"
          },
          "dirVec": {
            "x": 1.5894695221251027,
            "y": -0.22647507787298762,
            "z": -2.5403412806055052
          }
        },
        {
          "id": 1381901,
          "atomPositionNumber": 0,
          "atomPositionNumberInMol": 5,
          "apClass": {
            "rule": "MPhosphole",
            "subClass": 1,
            "bndTyp": "SINGLE"
          },
          "dirVec": {
            "x": -0.00979843638917681,
            "y": 0.00489843638917665,
            "z": 0.6167027931710318
          }
        },
        {
          "id": 1381902,
          "atomPositionNumber": 1,
          "atomPositionNumberInMol": 6,
          "apClass": {
            "rule": "LPhospholeSubAlpha",
            "subClass": 0,
            "bndTyp": "SINGLE"
          },
          "dirVec": {
            "x": -1.247747240951509,
            "y": -2.5654540058913766,
            "z": -2.537691072493987
          }
        },
        {
          "id": 1381903,
          "atomPositionNumber": 4,
          "atomPositionNumberInMol": 9,
          "apClass": {
            "rule": "LPhospholeSubAlpha",
            "subClass": 0,
            "bndTyp": "SINGLE"
          },
          "dirVec": {
            "x": -0.30790923671386095,
            "y": 2.9691196160259756,
            "z": -2.0438327128732703
          }
        }
      ],
      "lstSymAPs": [
        {
          "symIds": [
            2,
            3
          ]
        }
      ],
      "mol": {
        "atoms": [
          {
            "elSymbol": "P",
            "p3d": {
              "x": -0.009501563610823188,
              "y": 0.00460156361082335,
              "z": -1.6991027931710323
            }
          },
          {
            "elSymbol": "C",
            "p3d": {
              "x": -1.1878504094745181,
              "y": -1.053908140033033,
              "z": -2.605846739797364
            }
          },
          {
            "elSymbol": "C",
            "p3d": {
              "x": -1.94625229218355,
              "y": -0.25710823894232065,
              "z": -3.3375765478038635
            }
          },
          {
            "elSymbol": "C",
            "p3d": {
              "x": -1.6650510209052938,
              "y": 1.186522454492756,
              "z": -3.2249618240611233
            }
          },
          {
            "elSymbol": "C",
            "p3d": {
              "x": -0.7253388184579733,
              "y": 1.556006149283925,
              "z": -2.4003663499921255
            }
          },
          {
            "elSymbol": "H",
            "p3d": {
              "x": -2.7100366647175433,
              "y": -0.7233077954963977,
              "z": -3.938878065963961
            }
          },
          {
            "elSymbol": "H",
            "p3d": {
              "x": -2.1614501712183682,
              "y": 2.0012282110518838,
              "z": -3.749352083121948
            }
          }
        ],
        "bonds": [
          {
            "atomIds": [
              1,
              0
            ],
            "bo": "SINGLE"
          },
          {
            "atomIds": [
              2,
              1
            ],
            "bo": "DOUBLE"
          },
          {
            "atomIds": [
              3,
              2
            ],
            "bo": "SINGLE"
          },
          {
            "atomIds": [
              3,
              4
            ],
            "bo": "DOUBLE"
          },
          {
            "atomIds": [
              4,
              0
            ],
            "bo": "SINGLE"
          },
          {
            "atomIds": [
              2,
              5
            ],
            "bo": "SINGLE"
          },
          {
            "atomIds": [
              3,
              6
            ],
            "bo": "SINGLE"
          }
        ]
      },
      "vertexId": 190089,
      "buildingBlockId": 47,
      "buildingBlockType": "FRAGMENT",
      "isRCV": false,
      "properties": {
        "ATTACHMENT_POINTS": "1#LPhospholeSubR:0:SINGLE:1.5895%-0.2265%-2.5403,MPhosphole:1:SINGLE:-0.0098%0.0049%0.6167 2#LPhospholeSubAlpha:0:SINGLE:-1.2477%-2.5655%-2.5377 5#LPhospholeSubAlpha:0:SINGLE:-0.3079%2.9691%-2.0438 "
      },
      "uniquefyingPropertyKeys": [],
      "allowedMutationTypes": [
        "DELETE",
        "EXTEND",
        "CHANGEBRANCH",
        "CHANGELINK",
        "ADDLINK",
        "DELETELINK",
        "DELETECHAIN"
      ],
      "vertexType": "MolecularFragment"
    },
    {
      "lstAPs": [
        {
          "id": 1381904,
          "atomPositionNumber": 0,
          "atomPositionNumberInMol": 12,
          "apClass": {
            "rule": "ATplus",
            "subClass": 0,
            "bndTyp": "ANY"
          },
          "dirVec": {
            "x": -0.30790923671386095,
            "y": 2.9691196160259756,
            "z": -2.0438327128732703
          }
        }
      ],
      "lstSymAPs": [],
      "mol": {
        "atoms": [
          {
            "elSymbol": "ATP",
            "p3d": {
              "x": -0.30212906136304096,
              "y": 2.9886870927588087,
              "z": -2.0388957677425443
            }
          }
        ],
        "bonds": []
      },
      "vertexId": 190090,
      "buildingBlockId": 77,
      "buildingBlockType": "FRAGMENT",
      "isRCV": true,
      "properties": {
        "ATTACHMENT_POINTS": "1#ATplus:0:ANY:-0.3079%2.9691%-2.0438 "
      },
      "uniquefyingPropertyKeys": [],
      "allowedMutationTypes": [
        "DELETE",
        "EXTEND",
        "CHANGEBRANCH",
        "CHANGELINK",
        "ADDLINK",
        "DELETELINK",
        "DELETECHAIN"
      ],
      "vertexType": "MolecularFragment"
    },
    {
      "lstAPs": [
        {
          "id": 1381905,
          "atomPositionNumber": 0,
          "atomPositionNumberInMol": 13,
          "apClass": {
            "rule": "ATplus",
            "subClass": 0,
            "bndTyp": "ANY"
          },
          "dirVec": {
            "x": -1.247747240951509,
            "y": -2.5654540058913766,
            "z": -2.537691072493987
          }
        }
      ],
      "lstSymAPs": [],
      "mol": {
        "atoms": [
          {
            "elSymbol": "ATP",
            "p3d": {
              "x": -1.248577585256087,
              "y": -2.5864084281850874,
              "z": -2.536746236702601
            }
          }
        ],
        "bonds": []
      },
      "vertexId": 190091,
      "buildingBlockId": 77,
      "buildingBlockType": "FRAGMENT",
      "isRCV": true,
      "properties": {
        "ATTACHMENT_POINTS": "1#ATplus:0:ANY:-1.2477%-2.5655%-2.5377 "
      },
      "uniquefyingPropertyKeys": [],
      "allowedMutationTypes": [
        "DELETE",
        "EXTEND",
        "CHANGEBRANCH",
        "CHANGELINK",
        "ADDLINK",
        "DELETELINK",
        "DELETECHAIN"
      ],
      "vertexType": "MolecularFragment"
    },
    {
      "lstAPs": [
        {
          "id": 1381906,
          "atomPositionNumber": 0,
          "atomPositionNumberInMol": 24,
          "apClass": {
            "rule": "Xlig",
            "subClass": 1,
            "bndTyp": "SINGLE"
          },
          "dirVec": {
            "x": -0.102,
            "y": 0.0185,
            "z": -1.0265
          }
        },
        {
          "id": 1381907,
          "atomPositionNumber": 0,
          "atomPositionNumberInMol": 24,
          "apClass": {
            "rule": "bridge",
            "subClass": 1,
            "bndTyp": "SINGLE"
          },
          "dirVec": {
            "x": -0.626,
            "y": 2.4866,
            "z": 0.7805
          }
        }
      ],
      "lstSymAPs": [],
      "mol": {
        "atoms": [
          {
            "elSymbol": "S",
            "p3d": {
              "x": -0.3267,
              "y": 2.3403,
              "z": -1.0022
            }
          }
        ],
        "bonds": []
      },
      "vertexId": 190092,
      "buildingBlockId": 73,
      "buildingBlockType": "FRAGMENT",
      "isRCV": false,
      "properties": {
        "ATTACHMENT_POINTS": "1#Xlig:1:SINGLE:-0.1020%0.0185%-1.0265,bridge:1:SINGLE:-0.6260%2.4866%0.7805 "
      },
      "uniquefyingPropertyKeys": [],
      "allowedMutationTypes": [
        "DELETE",
        "EXTEND",
        "CHANGEBRANCH",
        "CHANGELINK",
        "ADDLINK",
        "DELETELINK",
        "DELETECHAIN"
      ],
      "vertexType": "MolecularFragment"
    },
    {
      "lstAPs": [
        {
          "id": 1381908,
          "atomPositionNumber": 0,
          "atomPositionNumberInMol": 39,
          "apClass": {
            "rule": "Xlig",
            "subClass": 1,
            "bndTyp": "SINGLE"
          },
          "dirVec": {
            "x": -0.102,
            "y": 0.0185,
            "z": -1.0265
          }
        },
        {
          "id": 1381909,
          "atomPositionNumber": 0,
          "atomPositionNumberInMol": 39,
          "apClass": {
            "rule": "bridge",
            "subClass": 1,
            "bndTyp": "SINGLE"
          },
          "dirVec": {
            "x": -0.626,
            "y": 2.4866,
            "z": 0.7805
          }
        }
      ],
      "lstSymAPs": [],
      "mol": {
        "atoms": [
          {
            "elSymbol": "S",
            "p3d": {
              "x": -0.3267,
              "y": 2.3403,
              "z": -1.0022
            }
          }
        ],
        "bonds": []
      },
      "vertexId": 190093,
      "buildingBlockId": 73,
      "buildingBlockType": "FRAGMENT",
      "isRCV": false,
      "properties": {
        "ATTACHMENT_POINTS": "1#Xlig:1:SINGLE:-0.1020%0.0185%-1.0265,bridge:1:SINGLE:-0.6260%2.4866%0.7805 "
      },
      "uniquefyingPropertyKeys": [],
      "allowedMutationTypes": [
        "DELETE",
        "EXTEND",
        "CHANGEBRANCH",
        "CHANGELINK",
        "ADDLINK",
        "DELETELINK",
        "DELETECHAIN"
      ],
      "vertexType": "MolecularFragment"
    },
    {
      "lstAPs": [
        {
          "id": 1381910,
          "atomPositionNumber": 0,
          "atomPositionNumberInMol": 25,
          "apClass": {
            "rule": "bridge",
            "subClass": 0,
            "bndTyp": "SINGLE"
          },
          "dirVec": {
            "x": -2.5958,
            "y": -0.6501,
            "z": -0.7558
          }
        },
        {
          "id": 1381911,
          "atomPositionNumber": 6,
          "atomPositionNumberInMol": 31,
          "apClass": {
            "rule": "bridge",
            "subClass": 0,
            "bndTyp": "SINGLE"
          },
          "dirVec": {
            "x": -0.8149,
            "y": 2.0931,
            "z": 0.1475
          }
        }
      ],
      "lstSymAPs": [],
      "mol": {
        "atoms": [
          {
            "elSymbol": "C",
            "p3d": {
              "x": -1.8258,
              "y": -0.5811,
              "z": 0.5645
            }
          },
          {
            "elSymbol": "C",
            "p3d": {
              "x": -0.3615,
              "y": -0.3647,
              "z": 0.2814
            }
          },
          {
            "elSymbol": "C",
            "p3d": {
              "x": 0.4975,
              "y": -1.4461,
              "z": 0.2179
            }
          },
          {
            "elSymbol": "C",
            "p3d": {
              "x": 1.8404,
              "y": -1.2477,
              "z": -0.0418
            }
          },
          {
            "elSymbol": "C",
            "p3d": {
              "x": 2.3248,
              "y": 0.0323,
              "z": -0.2386
            }
          },
          {
            "elSymbol": "C",
            "p3d": {
              "x": 1.4658,
              "y": 1.1133,
              "z": -0.1761
            }
          },
          {
            "elSymbol": "C",
            "p3d": {
              "x": 0.1217,
              "y": 0.9144,
              "z": 0.0794
            }
          },
          {
            "elSymbol": "H",
            "p3d": {
              "x": -2.206,
              "y": 0.246,
              "z": 1.164
            }
          },
          {
            "elSymbol": "H",
            "p3d": {
              "x": -1.956,
              "y": -1.5155,
              "z": 1.1104
            }
          },
          {
            "elSymbol": "H",
            "p3d": {
              "x": 0.1192,
              "y": -2.446,
              "z": 0.3716
            }
          },
          {
            "elSymbol": "H",
            "p3d": {
              "x": 2.5116,
              "y": -2.0924,
              "z": -0.0906
            }
          },
          {
            "elSymbol": "H",
            "p3d": {
              "x": 3.3743,
              "y": 0.1874,
              "z": -0.4409
            }
          },
          {
            "elSymbol": "H",
            "p3d": {
              "x": 1.8441,
              "y": 2.1132,
              "z": -0.3295
            }
          }
        ],
        "bonds": [
          {
            "atomIds": [
              0,
              1
            ],
            "bo": "SINGLE"
          },
          {
            "atomIds": [
              1,
              2
            ],
            "bo": "SINGLE"
          },
          {
            "atomIds": [
              2,
              3
            ],
            "bo": "DOUBLE"
          },
          {
            "atomIds": [
              3,
              4
            ],
            "bo": "SINGLE"
          },
          {
            "atomIds": [
              4,
              5
            ],
            "bo": "DOUBLE"
          },
          {
            "atomIds": [
              5,
              6
            ],
            "bo": "SINGLE"
          },
          {
            "atomIds": [
              1,
              6
            ],
            "bo": "DOUBLE"
          },
          {
            "atomIds": [
              0,
              7
            ],
            "bo": "SINGLE"
          },
          {
            "atomIds": [
              0,
              8
            ],
            "bo": "SINGLE"
          },
          {
            "atomIds": [
              2,
              9
            ],
            "bo": "SINGLE"
          },
          {
            "atomIds": [
              3,
              10
            ],
            "bo": "SINGLE"
          },
          {
            "atomIds": [
              4,
              11
            ],
            "bo": "SINGLE"
          },
          {
            "atomIds": [
              5,
              12
            ],
            "bo": "SINGLE"
          }
        ]
      },
      "vertexId": 190094,
      "buildingBlockId": 67,
      "buildingBlockType": "FRAGMENT",
      "isRCV": false,
      "properties": {
        "ATTACHMENT_POINTS": "1#bridge:0:SINGLE:-2.5958%-0.6501%-0.7558 7#bridge:0:SINGLE:-0.8149%2.0931%0.1475 "
      },
      "uniquefyingPropertyKeys": [],
      "allowedMutationTypes": [
        "DELETE",
        "EXTEND",
        "CHANGEBRANCH",
        "CHANGELINK",
        "ADDLINK",
        "DELETELINK",
        "DELETECHAIN"
      ],
      "vertexType": "MolecularFragment"
    },
    {
      "lstAPs": [
        {
          "id": 1381912,
          "atomPositionNumber": 0,
          "atomPositionNumberInMol": 40,
          "apClass": {
            "rule": "bridge",
            "subClass": 0,
            "bndTyp": "SINGLE"
          },
          "dirVec": {
            "x": -2.5958,
            "y": -0.6501,
            "z": -0.7558
          }
        },
        {
          "id": 1381913,
          "atomPositionNumber": 6,
          "atomPositionNumberInMol": 46,
          "apClass": {
            "rule": "bridge",
            "subClass": 0,
            "bndTyp": "SINGLE"
          },
          "dirVec": {
            "x": -0.8149,
            "y": 2.0931,
            "z": 0.1475
          }
        }
      ],
      "lstSymAPs": [],
      "mol": {
        "atoms": [
          {
            "elSymbol": "C",
            "p3d": {
              "x": -1.8258,
              "y": -0.5811,
              "z": 0.5645
            }
          },
          {
            "elSymbol": "C",
            "p3d": {
              "x": -0.3615,
              "y": -0.3647,
              "z": 0.2814
            }
          },
          {
            "elSymbol": "C",
            "p3d": {
              "x": 0.4975,
              "y": -1.4461,
              "z": 0.2179
            }
          },
          {
            "elSymbol": "C",
            "p3d": {
              "x": 1.8404,
              "y": -1.2477,
              "z": -0.0418
            }
          },
          {
            "elSymbol": "C",
            "p3d": {
              "x": 2.3248,
              "y": 0.0323,
              "z": -0.2386
            }
          },
          {
            "elSymbol": "C",
            "p3d": {
              "x": 1.4658,
              "y": 1.1133,
              "z": -0.1761
            }
          },
          {
            "elSymbol": "C",
            "p3d": {
              "x": 0.1217,
              "y": 0.9144,
              "z": 0.0794
            }
          },
          {
            "elSymbol": "H",
            "p3d": {
              "x": -2.206,
              "y": 0.246,
              "z": 1.164
            }
          },
          {
            "elSymbol": "H",
            "p3d": {
              "x": -1.956,
              "y": -1.5155,
              "z": 1.1104
            }
          },
          {
            "elSymbol": "H",
            "p3d": {
              "x": 0.1192,
              "y": -2.446,
              "z": 0.3716
            }
          },
          {
            "elSymbol": "H",
            "p3d": {
              "x": 2.5116,
              "y": -2.0924,
              "z": -0.0906
            }
          },
          {
            "elSymbol": "H",
            "p3d": {
              "x": 3.3743,
              "y": 0.1874,
              "z": -0.4409
            }
          },
          {
            "elSymbol": "H",
            "p3d": {
              "x": 1.8441,
              "y": 2.1132,
              "z": -0.3295
            }
          }
        ],
        "bonds": [
          {
            "atomIds": [
              0,
              1
            ],
            "bo": "SINGLE"
          },
          {
            "atomIds": [
              1,
              2
            ],
            "bo": "SINGLE"
          },
          {
            "atomIds": [
              2,
              3
            ],
            "bo": "DOUBLE"
          },
          {
            "atomIds": [
              3,
              4
            ],
            "bo": "SINGLE"
          },
          {
            "atomIds": [
              4,
              5
            ],
            "bo": "DOUBLE"
          },
          {
            "atomIds": [
              5,
              6
            ],
            "bo": "SINGLE"
          },
          {
            "atomIds": [
              1,
              6
            ],
            "bo": "DOUBLE"
          },
          {
            "atomIds": [
              0,
              7
            ],
            "bo": "SINGLE"
          },
          {
            "atomIds": [
              0,
              8
            ],
            "bo": "SINGLE"
          },
          {
            "atomIds": [
              2,
              9
            ],
            "bo": "SINGLE"
          },
          {
            "atomIds": [
              3,
              10
            ],
            "bo": "SINGLE"
          },
          {
            "atomIds": [
              4,
              11
            ],
            "bo": "SINGLE"
          },
          {
            "atomIds": [
              5,
              12
            ],
            "bo": "SINGLE"
          }
        ]
      },
      "vertexId": 190095,
      "buildingBlockId": 67,
      "buildingBlockType": "FRAGMENT",
      "isRCV": false,
      "properties": {
        "ATTACHMENT_POINTS": "1#bridge:0:SINGLE:-2.5958%-0.6501%-0.7558 7#bridge:0:SINGLE:-0.8149%2.0931%0.1475 "
      },
      "uniquefyingPropertyKeys": [],
      "allowedMutationTypes": [
        "DELETE",
        "EXTEND",
        "CHANGEBRANCH",
        "CHANGELINK",
        "ADDLINK",
        "DELETELINK",
        "DELETECHAIN"
      ],
      "vertexType": "MolecularFragment"
    },
    {
      "lstAPs": [
        {
          "id": 1381914,
          "atomPositionNumber": 0,
          "atomPositionNumberInMol": 38,
          "apClass": {
            "rule": "ATminus",
            "subClass": 0,
            "bndTyp": "ANY"
          },
          "dirVec": {
            "x": 0.0109,
            "y": -0.0071,
            "z": 0.0026
          }
        }
      ],
      "lstSymAPs": [],
      "mol": {
        "atoms": [
          {
            "elSymbol": "ATM",
            "p3d": {
              "x": -0.0096,
              "y": 0.0045,
              "z": -0.0011
            }
          }
        ],
        "bonds": []
      },
      "vertexId": 190096,
      "buildingBlockId": 78,
      "buildingBlockType": "FRAGMENT",
      "isRCV": true,
      "properties": {
        "ATTACHMENT_POINTS": "1#ATminus:0:ANY:0.0109%-0.0071%0.0026 "
      },
      "uniquefyingPropertyKeys": [],
      "allowedMutationTypes": [
        "DELETE",
        "EXTEND",
        "CHANGEBRANCH",
        "CHANGELINK",
        "ADDLINK",
        "DELETELINK",
        "DELETECHAIN"
      ],
      "vertexType": "MolecularFragment"
    },
    {
      "lstAPs": [
        {
          "id": 1381915,
          "atomPositionNumber": 0,
          "atomPositionNumberInMol": 53,
          "apClass": {
            "rule": "ATminus",
            "subClass": 0,
            "bndTyp": "ANY"
          },
          "dirVec": {
            "x": 0.0109,
            "y": -0.0071,
            "z": 0.0026
          }
        }
      ],
      "lstSymAPs": [],
      "mol": {
        "atoms": [
          {
            "elSymbol": "ATM",
            "p3d": {
              "x": -0.0096,
              "y": 0.0045,
              "z": -0.0011
            }
          }
        ],
        "bonds": []
      },
      "vertexId": 190097,
      "buildingBlockId": 78,
      "buildingBlockType": "FRAGMENT",
      "isRCV": true,
      "properties": {
        "ATTACHMENT_POINTS": "1#ATminus:0:ANY:0.0109%-0.0071%0.0026 "
      },
      "uniquefyingPropertyKeys": [],
      "allowedMutationTypes": [
        "DELETE",
        "EXTEND",
        "CHANGEBRANCH",
        "CHANGELINK",
        "ADDLINK",
        "DELETELINK",
        "DELETECHAIN"
      ],
      "vertexType": "MolecularFragment"
    },
    {
      "lstAPs": [
        {
          "id": 1381976,
          "atomPositionNumber": 1,
          "atomPositionNumberInMol": 15,
          "apClass": {
            "rule": "SubRM",
            "subClass": 1,
            "bndTyp": "SINGLE"
          },
          "dirVec": {
            "x": 0.2868,
            "y": 0.385,
            "z": -0.643
          }
        }
      ],
      "lstSymAPs": [],
      "mol": {
        "atoms": [
          {
            "elSymbol": "C",
            "p3d": {
              "x": 1.141,
              "y": 1.0262,
              "z": 1.6347
            }
          },
          {
            "elSymbol": "C",
            "p3d": {
              "x": 0.3967,
              "y": -0.0479,
              "z": 0.8227
            }
          },
          {
            "elSymbol": "C",
            "p3d": {
              "x": 1.1459,
              "y": -1.371,
              "z": 0.9201
            }
          },
          {
            "elSymbol": "H",
            "p3d": {
              "x": 2.1461,
              "y": -1.2583,
              "z": 0.4976
            }
          },
          {
            "elSymbol": "H",
            "p3d": {
              "x": 0.6013,
              "y": -2.1408,
              "z": 0.3461
            }
          },
          {
            "elSymbol": "H",
            "p3d": {
              "x": 1.2113,
              "y": -1.6946,
              "z": 1.9559
            }
          },
          {
            "elSymbol": "H",
            "p3d": {
              "x": 2.1541,
              "y": 1.1435,
              "z": 1.2119
            }
          },
          {
            "elSymbol": "H",
            "p3d": {
              "x": 0.6143,
              "y": 1.976,
              "z": 1.5626
            }
          },
          {
            "elSymbol": "H",
            "p3d": {
              "x": 1.2058,
              "y": 0.7088,
              "z": 2.6868
            }
          },
          {
            "elSymbol": "H",
            "p3d": {
              "x": -0.6215,
              "y": -0.1789,
              "z": 1.2377
            }
          }
        ],
        "bonds": [
          {
            "atomIds": [
              0,
              1
            ],
            "bo": "SINGLE"
          },
          {
            "atomIds": [
              1,
              2
            ],
            "bo": "SINGLE"
          },
          {
            "atomIds": [
              2,
              3
            ],
            "bo": "SINGLE"
          },
          {
            "atomIds": [
              2,
              4
            ],
            "bo": "SINGLE"
          },
          {
            "atomIds": [
              2,
              5
            ],
            "bo": "SINGLE"
          },
          {
            "atomIds": [
              0,
              6
            ],
            "bo": "SINGLE"
          },
          {
            "atomIds": [
              0,
              7
            ],
            "bo": "SINGLE"
          },
          {
            "atomIds": [
              0,
              8
            ],
            "bo": "SINGLE"
          },
          {
            "atomIds": [
              1,
              9
            ],
            "bo": "SINGLE"
          }
        ]
      },
      "vertexId": 1097778,
      "buildingBlockId": 25,
      "buildingBlockType": "FRAGMENT",
      "isRCV": false,
      "properties": {
        "ATTACHMENT_POINTS": "2#SubRM:1:SINGLE:0.2868%0.3850%-0.6430 "
      },
      "uniquefyingPropertyKeys": [],
      "allowedMutationTypes": [
        "DELETE",
        "EXTEND",
        "CHANGEBRANCH",
        "CHANGELINK",
        "ADDLINK",
        "DELETELINK",
        "DELETECHAIN"
      ],
      "vertexType": "MolecularFragment"
    }
  ],
  "gEdges": [
    {
      "srcAPID": 1381899,
      "trgAPID": 1381901,
      "bondType": "SINGLE"
    },
    {
      "srcAPID": 1381903,
      "trgAPID": 1381904,
      "bondType": "SINGLE"
    },
    {
      "srcAPID": 1381902,
      "trgAPID": 1381905,
      "bondType": "SINGLE"
    },
    {
      "srcAPID": 1381898,
      "trgAPID": 1381906,
      "bondType": "SINGLE"
    },
    {
      "srcAPID": 1381897,
      "trgAPID": 1381908,
      "bondType": "SINGLE"
    },
    {
      "srcAPID": 1381907,
      "trgAPID": 1381910,
      "bondType": "SINGLE"
    },
    {
      "srcAPID": 1381909,
      "trgAPID": 1381912,
      "bondType": "SINGLE"
    },
    {
      "srcAPID": 1381911,
      "trgAPID": 1381914,
      "bondType": "SINGLE"
    },
    {
      "srcAPID": 1381913,
      "trgAPID": 1381915,
      "bondType": "SINGLE"
    },
    {
      "srcAPID": 1381900,
      "trgAPID": 1381976,
      "bondType": "SINGLE"
    }
  ],
  "gRings": [
    {
      "vertices": [
        190090,
        190089,
        190088,
        190092,
        190094,
        190096
      ],
      "bndTyp": "SINGLE"
    },
    {
      "vertices": [
        190091,
        190089,
        190088,
        190093,
        190095,
        190097
      ],
      "bndTyp": "SINGLE"
    }
  ],
  "symVertices": [
    {
      "symIds": [
        190090,
        190091
      ]
    },
    {
      "symIds": [
        190092,
        190093
      ]
    },
    {
      "symIds": [
        190094,
        190095
      ]
    },
    {
      "symIds": [
        190096,
        190097
      ]
    }
  ]
}

> <SMILES>
[Pt]12(C#O)[P]3(C(=C(C(=C3C=4C(=C(C(=C(C4C([H])([H])S1)[H])[H])[H])[H])[H])[H])C=5C(=C(C(=C(C5C([H])([H])S2)[H])[H])[H])[H])C(C([H])([H])[H])(C([H])([H])[H])[H]

$$$$
