M00023803
  CDK     05032209403D

 46 48  0  0  0  0  0  0  0  0999 V2000
   -2.3540    0.0183    1.6458 Pt  0  0  0  0  0  0  0  0  0  0  0  0
   -4.2431    0.1516    2.0569 C   0  0  0  0  0  0  0  0  0  0  0  0
   -5.3639    0.2329    2.2786 O   0  0  0  0  0  0  0  0  0  0  0  0
   -0.1818   -0.1197    1.1024 P   0  0  0  0  0  0  0  0  0  0  0  0
    0.2404    1.2047   -0.1183 C   0  0  0  0  0  0  0  0  0  0  0  0
    0.6798    0.5852   -1.2331 C   0  0  0  0  0  0  0  0  0  0  0  0
    0.5812   -0.9213   -1.2358 C   0  0  0  0  0  0  0  0  0  0  0  0
    0.0765   -1.4830   -0.1178 C   0  0  0  0  0  0  0  0  0  0  0  0
    0.0730    1.3913   -3.5267 C   0  0  0  0  0  0  0  0  0  0  0  0
    1.1584    1.3107   -2.4545 C   0  0  0  0  0  0  0  0  0  0  0  0
   -0.2177    0.3903   -3.8773 H   0  0  0  0  0  0  0  0  0  0  0  0
   -0.8323    1.8795   -3.1445 H   0  0  0  0  0  0  0  0  0  0  0  0
    0.4156    1.9621   -4.3970 H   0  0  0  0  0  0  0  0  0  0  0  0
    2.0633    0.8048   -2.8625 H   0  0  0  0  0  0  0  0  0  0  0  0
    1.4906    2.3351   -2.1823 H   0  0  0  0  0  0  0  0  0  0  0  0
    0.0903    0.5261    3.7065 C   0  0  0  0  0  0  0  0  0  0  0  0
    0.9214   -0.1747    2.6358 C   0  0  0  0  0  0  0  0  0  0  0  0
    2.2690    0.4815    2.3849 C   0  0  0  0  0  0  0  0  0  0  0  0
    2.8512   -0.0150    1.5978 H   0  0  0  0  0  0  0  0  0  0  0  0
    2.8836    0.4414    3.2978 H   0  0  0  0  0  0  0  0  0  0  0  0
    2.1907    1.5467    2.1238 H   0  0  0  0  0  0  0  0  0  0  0  0
    0.6612    0.6299    4.6395 H   0  0  0  0  0  0  0  0  0  0  0  0
   -0.2315    1.5477    3.4279 H   0  0  0  0  0  0  0  0  0  0  0  0
   -0.8300   -0.0312    3.9647 H   0  0  0  0  0  0  0  0  0  0  0  0
    1.0740   -1.2495    2.9210 H   0  0  0  0  0  0  0  0  0  0  0  0
    2.4531   -1.7984   -2.6447 C   0  0  0  0  0  0  0  0  0  0  0  0
    0.9392   -1.6949   -2.4681 C   0  0  0  0  0  0  0  0  0  0  0  0
    2.9099   -0.8063   -2.7712 H   0  0  0  0  0  0  0  0  0  0  0  0
    2.9274   -2.2728   -1.7772 H   0  0  0  0  0  0  0  0  0  0  0  0
    2.7081   -2.3957   -3.5277 H   0  0  0  0  0  0  0  0  0  0  0  0
    0.4799   -1.2149   -3.3630 H   0  0  0  0  0  0  0  0  0  0  0  0
    0.4981   -2.7139   -2.4218 H   0  0  0  0  0  0  0  0  0  0  0  0
   -2.3973   -2.0401    1.6739 O   0  0  0  0  0  0  0  0  0  0  0  0
   -0.5350   -2.7833    0.2223 C   0  0  0  0  0  0  0  0  0  0  0  0
   -2.0752   -2.6342    0.4442 C   0  0  0  0  0  0  0  0  0  0  0  0
   -0.0876   -3.2267    1.1385 H   0  0  0  0  0  0  0  0  0  0  0  0
   -0.3606   -3.5304   -0.5787 H   0  0  0  0  0  0  0  0  0  0  0  0
   -2.5397   -2.0620   -0.3812 H   0  0  0  0  0  0  0  0  0  0  0  0
   -2.5332   -3.6435    0.5003 H   0  0  0  0  0  0  0  0  0  0  0  0
   -2.0595    2.0569    1.7444 O   0  0  0  0  0  0  0  0  0  0  0  0
   -0.1802    2.5770    0.2268 C   0  0  0  0  0  0  0  0  0  0  0  0
   -1.7151    2.6369    0.5140 C   0  0  0  0  0  0  0  0  0  0  0  0
    0.0553    3.2861   -0.5930 H   0  0  0  0  0  0  0  0  0  0  0  0
    0.3606    2.9620    1.1190 H   0  0  0  0  0  0  0  0  0  0  0  0
   -2.0260    3.6976    0.6107 H   0  0  0  0  0  0  0  0  0  0  0  0
   -2.2882    2.1552   -0.3009 H   0  0  0  0  0  0  0  0  0  0  0  0
  2  3  3  0  0  0  0
  1  2  1  0  0  0  0
  5  4  1  0  0  0  0
  6  5  2  0  0  0  0
  7  6  1  0  0  0  0
  8  4  1  0  0  0  0
  7  8  2  0  0  0  0
  1  4  1  0  0  0  0
  9 10  1  0  0  0  0
  9 11  1  0  0  0  0
  9 12  1  0  0  0  0
  9 13  1  0  0  0  0
 10 14  1  0  0  0  0
 10 15  1  0  0  0  0
  6 10  1  0  0  0  0
 16 17  1  0  0  0  0
 17 18  1  0  0  0  0
 18 19  1  0  0  0  0
 18 20  1  0  0  0  0
 18 21  1  0  0  0  0
 16 22  1  0  0  0  0
 16 23  1  0  0  0  0
 16 24  1  0  0  0  0
 17 25  1  0  0  0  0
  4 17  1  0  0  0  0
 26 27  1  0  0  0  0
 26 28  1  0  0  0  0
 26 29  1  0  0  0  0
 26 30  1  0  0  0  0
 27 31  1  0  0  0  0
 27 32  1  0  0  0  0
  7 27  1  0  0  0  0
  1 33  1  0  0  0  0
 34 35  1  0  0  0  0
 34 36  1  0  0  0  0
 34 37  1  0  0  0  0
 35 38  1  0  0  0  0
 35 39  1  0  0  0  0
 33 35  1  0  0  0  0
  1 40  1  0  0  0  0
 41 42  1  0  0  0  0
 41 43  1  0  0  0  0
 41 44  1  0  0  0  0
 42 45  1  0  0  0  0
 42 46  1  0  0  0  0
 40 42  1  0  0  0  0
  5 41  1  0  0  0  0
  8 34  1  0  0  0  0
M  END
> <PM6_ENERGY>
-415.823

> <UID>
QMHOBGYSXBNASR-DQPKIREONA-N

> <FITNESS>
1.14541

> <GCODE>
34883

> <GraphENC>
34883 195844_1_0,195845_49_1,195846_78_1,195847_78_1,195848_73_1,195849_73_1,195850_66_1,195851_66_1,195852_79_1,195853_79_1,1197576_25_1,1197569_26_1,1197971_25_1, 195844_2_195845_1_SINGLE_scaff:0_MPhosphole:1,195845_5_195846_0_SINGLE_LPhospholeSubAlpha:0_ATplus:0,195845_2_195847_0_SINGLE_LPhospholeSubAlpha:0_ATplus:0,195844_1_195848_0_SINGLE_Xlig:0_Xlig:1,195844_0_195849_0_SINGLE_Xlig:0_Xlig:1,195848_1_195850_0_SINGLE_bridge:1_bridge:0,195849_1_195851_0_SINGLE_bridge:1_bridge:0,195851_1_195852_0_SINGLE_bridge:0_ATminus:0,195850_1_195853_0_SINGLE_bridge:0_ATminus:0,195845_3_1197576_0_SINGLE_LPhospholeSubBeta:0_SubRS:1,195845_0_1197569_0_SINGLE_LPhospholeSubR:0_SubRM:1,195845_4_1197971_0_SINGLE_LPhospholeSubBeta:0_SubRS:1, DENOPTIMRing [vertices=[195846_78_1, 195845_49_1, 195844_1_0, 195848_73_1, 195850_66_1, 195853_79_1]] DENOPTIMRing [vertices=[195847_78_1, 195845_49_1, 195844_1_0, 195849_73_1, 195851_66_1, 195852_79_1]] SymmetricSet [symIds=[195846, 195847]] SymmetricSet [symIds=[195848, 195849]] SymmetricSet [symIds=[195850, 195851]] SymmetricSet [symIds=[195852, 195853]] SymmetricSet [symIds=[1197576, 1197971]] 

> <GraphJson>
{
  "graphId": 34883,
  "gVertices": [
    {
      "lstAPs": [
        {
          "id": 1543083,
          "atomPositionNumber": 0,
          "atomPositionNumberInMol": 0,
          "apClass": {
            "rule": "Xlig",
            "subClass": 0,
            "bndTyp": "SINGLE"
          },
          "dirVec": {
            "x": -2.3339,
            "y": -0.0087,
            "z": 0.8172
          }
        },
        {
          "id": 1543084,
          "atomPositionNumber": 0,
          "atomPositionNumberInMol": 0,
          "apClass": {
            "rule": "Xlig",
            "subClass": 0,
            "bndTyp": "SINGLE"
          },
          "dirVec": {
            "x": 2.336,
            "y": -5.0E-4,
            "z": 0.829
          }
        },
        {
          "id": 1543085,
          "atomPositionNumber": 0,
          "atomPositionNumberInMol": 0,
          "apClass": {
            "rule": "scaff",
            "subClass": 0,
            "bndTyp": "SINGLE"
          },
          "dirVec": {
            "x": -0.0095,
            "y": 0.0046,
            "z": -1.7113
          }
        }
      ],
      "lstSymAPs": [
        {
          "symIds": [
            0,
            1
          ]
        }
      ],
      "mol": {
        "atoms": [
          {
            "elSymbol": "Pt",
            "p3d": {
              "x": -0.0098,
              "y": 0.0049,
              "z": 0.6289
            }
          },
          {
            "elSymbol": "C",
            "p3d": {
              "x": -6.0E-4,
              "y": 0.0016,
              "z": 2.5609
            }
          },
          {
            "elSymbol": "O",
            "p3d": {
              "x": 0.0025,
              "y": -0.0041,
              "z": 3.6974
            }
          },
          {
            "elSymbol": "Du",
            "p3d": {
              "x": -0.007,
              "y": 1.0013,
              "z": 0.6372
            }
          },
          {
            "elSymbol": "Du",
            "p3d": {
              "x": -0.0014,
              "y": 0.9902,
              "z": 2.5698
            }
          }
        ],
        "bonds": [
          {
            "atomIds": [
              1,
              2
            ],
            "bo": "TRIPLE"
          },
          {
            "atomIds": [
              0,
              1
            ],
            "bo": "SINGLE"
          },
          {
            "atomIds": [
              3,
              0
            ],
            "bo": "SINGLE"
          },
          {
            "atomIds": [
              4,
              1
            ],
            "bo": "SINGLE"
          }
        ]
      },
      "vertexId": 195844,
      "buildingBlockId": 0,
      "buildingBlockType": "SCAFFOLD",
      "isRCV": false,
      "properties": {
        "ATTACHMENT_POINTS": "1#Xlig:0:SINGLE:-2.3339%-0.0087%0.8172,Xlig:0:SINGLE:2.3360%-0.0005%0.8290,scaff:0:SINGLE:-0.0095%0.0046%-1.7113 "
      },
      "uniquefyingPropertyKeys": [],
      "allowedMutationTypes": [
        "DELETE",
        "EXTEND",
        "CHANGEBRANCH",
        "CHANGELINK",
        "ADDLINK",
        "DELETELINK",
        "DELETECHAIN"
      ],
      "vertexType": "MolecularFragment"
    },
    {
      "lstAPs": [
        {
          "id": 1543086,
          "atomPositionNumber": 0,
          "atomPositionNumberInMol": 5,
          "apClass": {
            "rule": "LPhospholeSubR",
            "subClass": 0,
            "bndTyp": "SINGLE"
          },
          "dirVec": {
            "x": -0.957928699128247,
            "y": -1.2389867054478398,
            "z": -2.7146353932890195
          }
        },
        {
          "id": 1543087,
          "atomPositionNumber": 0,
          "atomPositionNumberInMol": 5,
          "apClass": {
            "rule": "MPhosphole",
            "subClass": 1,
            "bndTyp": "SINGLE"
          },
          "dirVec": {
            "x": -0.009809425383735727,
            "y": 0.004909425383735812,
            "z": 0.7024242767279409
          }
        },
        {
          "id": 1543088,
          "atomPositionNumber": 1,
          "atomPositionNumberInMol": 6,
          "apClass": {
            "rule": "LPhospholeSubAlpha",
            "subClass": 0,
            "bndTyp": "SINGLE"
          },
          "dirVec": {
            "x": 2.5931089868169965,
            "y": -1.0815202663168948,
            "z": -2.460516221355717
          }
        },
        {
          "id": 1543089,
          "atomPositionNumber": 2,
          "atomPositionNumberInMol": 7,
          "apClass": {
            "rule": "LPhospholeSubBeta",
            "subClass": 0,
            "bndTyp": "SINGLE"
          },
          "dirVec": {
            "x": 3.0768132024617056,
            "y": 1.7083038994768367,
            "z": -3.8099260796718815
          }
        },
        {
          "id": 1543090,
          "atomPositionNumber": 3,
          "atomPositionNumberInMol": 8,
          "apClass": {
            "rule": "LPhospholeSubBeta",
            "subClass": 0,
            "bndTyp": "SINGLE"
          },
          "dirVec": {
            "x": 0.635419563843959,
            "y": 3.49095505570571,
            "z": -3.7392781744469774
          }
        },
        {
          "id": 1543091,
          "atomPositionNumber": 4,
          "atomPositionNumberInMol": 9,
          "apClass": {
            "rule": "LPhospholeSubAlpha",
            "subClass": 0,
            "bndTyp": "SINGLE"
          },
          "dirVec": {
            "x": -1.8432285744872703,
            "y": 2.170253200783081,
            "z": -2.364409505536723
          }
        }
      ],
      "lstSymAPs": [
        {
          "symIds": [
            2,
            5
          ]
        },
        {
          "symIds": [
            3,
            4
          ]
        }
      ],
      "mol": {
        "atoms": [
          {
            "elSymbol": "P",
            "p3d": {
              "x": -0.00949057461626427,
              "y": 0.004590574616264188,
              "z": -1.7848242767279412
            }
          },
          {
            "elSymbol": "C",
            "p3d": {
              "x": 1.6237935144381006,
              "y": 0.06110197376388202,
              "z": -2.565184370664216
            }
          },
          {
            "elSymbol": "C",
            "p3d": {
              "x": 1.7807489251800075,
              "y": 1.251602683219663,
              "z": -3.1438579313390767
            }
          },
          {
            "elSymbol": "C",
            "p3d": {
              "x": 0.5800947529651779,
              "y": 2.13213259884702,
              "z": -3.129588158096259
            }
          },
          {
            "elSymbol": "C",
            "p3d": {
              "x": -0.48208517386874467,
              "y": 1.5859958497483213,
              "z": -2.537539169992243
            }
          }
        ],
        "bonds": [
          {
            "atomIds": [
              1,
              0
            ],
            "bo": "SINGLE"
          },
          {
            "atomIds": [
              2,
              1
            ],
            "bo": "DOUBLE"
          },
          {
            "atomIds": [
              3,
              2
            ],
            "bo": "SINGLE"
          },
          {
            "atomIds": [
              4,
              0
            ],
            "bo": "SINGLE"
          },
          {
            "atomIds": [
              3,
              4
            ],
            "bo": "DOUBLE"
          }
        ]
      },
      "vertexId": 195845,
      "buildingBlockId": 48,
      "buildingBlockType": "FRAGMENT",
      "isRCV": false,
      "properties": {
        "ATTACHMENT_POINTS": "1#LPhospholeSubR:0:SINGLE:-0.9579%-1.2390%-2.7146,MPhosphole:1:SINGLE:-0.0098%0.0049%0.7024 2#LPhospholeSubAlpha:0:SINGLE:2.5931%-1.0815%-2.4605 3#LPhospholeSubBeta:0:SINGLE:3.0768%1.7083%-3.8099 4#LPhospholeSubBeta:0:SINGLE:0.6354%3.4910%-3.7393 5#LPhospholeSubAlpha:0:SINGLE:-1.8432%2.1703%-2.3644 "
      },
      "uniquefyingPropertyKeys": [],
      "allowedMutationTypes": [
        "DELETE",
        "EXTEND",
        "CHANGEBRANCH",
        "CHANGELINK",
        "ADDLINK",
        "DELETELINK",
        "DELETECHAIN"
      ],
      "vertexType": "MolecularFragment"
    },
    {
      "lstAPs": [
        {
          "id": 1543092,
          "atomPositionNumber": 0,
          "atomPositionNumberInMol": 10,
          "apClass": {
            "rule": "ATplus",
            "subClass": 0,
            "bndTyp": "ANY"
          },
          "dirVec": {
            "x": -1.8432285744872703,
            "y": 2.170253200783081,
            "z": -2.364409505536723
          }
        }
      ],
      "lstSymAPs": [],
      "mol": {
        "atoms": [
          {
            "elSymbol": "ATP",
            "p3d": {
              "x": -1.8623882938320793,
              "y": 2.1784773209352126,
              "z": -2.361972498694004
            }
          }
        ],
        "bonds": []
      },
      "vertexId": 195846,
      "buildingBlockId": 77,
      "buildingBlockType": "FRAGMENT",
      "isRCV": true,
      "properties": {
        "ATTACHMENT_POINTS": "1#ATplus:0:ANY:-1.8432%2.1703%-2.3644 "
      },
      "uniquefyingPropertyKeys": [],
      "allowedMutationTypes": [
        "DELETE",
        "EXTEND",
        "CHANGEBRANCH",
        "CHANGELINK",
        "ADDLINK",
        "DELETELINK",
        "DELETECHAIN"
      ],
      "vertexType": "MolecularFragment"
    },
    {
      "lstAPs": [
        {
          "id": 1543093,
          "atomPositionNumber": 0,
          "atomPositionNumberInMol": 11,
          "apClass": {
            "rule": "ATplus",
            "subClass": 0,
            "bndTyp": "ANY"
          },
          "dirVec": {
            "x": 2.5931089868169965,
            "y": -1.0815202663168948,
            "z": -2.460516221355717
          }
        }
      ],
      "lstSymAPs": [],
      "mol": {
        "atoms": [
          {
            "elSymbol": "ATP",
            "p3d": {
              "x": 2.606655933348593,
              "y": -1.0974893113112951,
              "z": -2.459053401600283
            }
          }
        ],
        "bonds": []
      },
      "vertexId": 195847,
      "buildingBlockId": 77,
      "buildingBlockType": "FRAGMENT",
      "isRCV": true,
      "properties": {
        "ATTACHMENT_POINTS": "1#ATplus:0:ANY:2.5931%-1.0815%-2.4605 "
      },
      "uniquefyingPropertyKeys": [],
      "allowedMutationTypes": [
        "DELETE",
        "EXTEND",
        "CHANGEBRANCH",
        "CHANGELINK",
        "ADDLINK",
        "DELETELINK",
        "DELETECHAIN"
      ],
      "vertexType": "MolecularFragment"
    },
    {
      "lstAPs": [
        {
          "id": 1543094,
          "atomPositionNumber": 0,
          "atomPositionNumberInMol": 36,
          "apClass": {
            "rule": "Xlig",
            "subClass": 1,
            "bndTyp": "SINGLE"
          },
          "dirVec": {
            "x": -0.1753,
            "y": 0.0948,
            "z": -0.4464
          }
        },
        {
          "id": 1543095,
          "atomPositionNumber": 0,
          "atomPositionNumberInMol": 36,
          "apClass": {
            "rule": "bridge",
            "subClass": 1,
            "bndTyp": "SINGLE"
          },
          "dirVec": {
            "x": -0.5345,
            "y": 2.7646,
            "z": 0.48009999999999997
          }
        }
      ],
      "lstSymAPs": [],
      "mol": {
        "atoms": [
          {
            "elSymbol": "O",
            "p3d": {
              "x": -0.3534,
              "y": 2.1044,
              "z": -0.7339
            }
          }
        ],
        "bonds": []
      },
      "vertexId": 195848,
      "buildingBlockId": 72,
      "buildingBlockType": "FRAGMENT",
      "isRCV": false,
      "properties": {
        "ATTACHMENT_POINTS": "1#Xlig:1:SINGLE:-0.1753%0.0948%-0.4464,bridge:1:SINGLE:-0.5345%2.7646%0.4801 "
      },
      "uniquefyingPropertyKeys": [],
      "allowedMutationTypes": [
        "DELETE",
        "EXTEND",
        "CHANGEBRANCH",
        "CHANGELINK",
        "ADDLINK",
        "DELETELINK",
        "DELETECHAIN"
      ],
      "vertexType": "MolecularFragment"
    },
    {
      "lstAPs": [
        {
          "id": 1543096,
          "atomPositionNumber": 0,
          "atomPositionNumberInMol": 44,
          "apClass": {
            "rule": "Xlig",
            "subClass": 1,
            "bndTyp": "SINGLE"
          },
          "dirVec": {
            "x": -0.1753,
            "y": 0.0948,
            "z": -0.4464
          }
        },
        {
          "id": 1543097,
          "atomPositionNumber": 0,
          "atomPositionNumberInMol": 44,
          "apClass": {
            "rule": "bridge",
            "subClass": 1,
            "bndTyp": "SINGLE"
          },
          "dirVec": {
            "x": -0.5345,
            "y": 2.7646,
            "z": 0.48009999999999997
          }
        }
      ],
      "lstSymAPs": [],
      "mol": {
        "atoms": [
          {
            "elSymbol": "O",
            "p3d": {
              "x": -0.3534,
              "y": 2.1044,
              "z": -0.7339
            }
          }
        ],
        "bonds": []
      },
      "vertexId": 195849,
      "buildingBlockId": 72,
      "buildingBlockType": "FRAGMENT",
      "isRCV": false,
      "properties": {
        "ATTACHMENT_POINTS": "1#Xlig:1:SINGLE:-0.1753%0.0948%-0.4464,bridge:1:SINGLE:-0.5345%2.7646%0.4801 "
      },
      "uniquefyingPropertyKeys": [],
      "allowedMutationTypes": [
        "DELETE",
        "EXTEND",
        "CHANGEBRANCH",
        "CHANGELINK",
        "ADDLINK",
        "DELETELINK",
        "DELETECHAIN"
      ],
      "vertexType": "MolecularFragment"
    },
    {
      "lstAPs": [
        {
          "id": 1543098,
          "atomPositionNumber": 1,
          "atomPositionNumberInMol": 38,
          "apClass": {
            "rule": "bridge",
            "subClass": 0,
            "bndTyp": "SINGLE"
          },
          "dirVec": {
            "x": 0.4112,
            "y": -1.2101,
            "z": -0.19930000000000003
          }
        },
        {
          "id": 1543099,
          "atomPositionNumber": 0,
          "atomPositionNumberInMol": 37,
          "apClass": {
            "rule": "bridge",
            "subClass": 0,
            "bndTyp": "SINGLE"
          },
          "dirVec": {
            "x": 0.41179999999999994,
            "y": 1.21,
            "z": -0.19930000000000003
          }
        }
      ],
      "lstSymAPs": [
        {
          "symIds": [
            0,
            1
          ]
        }
      ],
      "mol": {
        "atoms": [
          {
            "elSymbol": "C",
            "p3d": {
              "x": -1.0414,
              "y": 0.7696,
              "z": 0.0732
            }
          },
          {
            "elSymbol": "C",
            "p3d": {
              "x": -1.0417,
              "y": -0.7693,
              "z": 0.0732
            }
          },
          {
            "elSymbol": "H",
            "p3d": {
              "x": -1.6983,
              "y": 1.1431,
              "z": -0.7123
            }
          },
          {
            "elSymbol": "H",
            "p3d": {
              "x": -1.369,
              "y": 1.143,
              "z": 1.0434
            }
          },
          {
            "elSymbol": "H",
            "p3d": {
              "x": -1.3695,
              "y": -1.1425,
              "z": 1.0434
            }
          },
          {
            "elSymbol": "H",
            "p3d": {
              "x": -1.6988,
              "y": -1.1424,
              "z": -0.7123
            }
          }
        ],
        "bonds": [
          {
            "atomIds": [
              0,
              1
            ],
            "bo": "SINGLE"
          },
          {
            "atomIds": [
              0,
              2
            ],
            "bo": "SINGLE"
          },
          {
            "atomIds": [
              0,
              3
            ],
            "bo": "SINGLE"
          },
          {
            "atomIds": [
              1,
              4
            ],
            "bo": "SINGLE"
          },
          {
            "atomIds": [
              1,
              5
            ],
            "bo": "SINGLE"
          }
        ]
      },
      "vertexId": 195850,
      "buildingBlockId": 65,
      "buildingBlockType": "FRAGMENT",
      "isRCV": false,
      "properties": {
        "ATTACHMENT_POINTS": "1#bridge:0:SINGLE:0.4118%1.2100%-0.1993 2#bridge:0:SINGLE:0.4112%-1.2101%-0.1993 "
      },
      "uniquefyingPropertyKeys": [],
      "allowedMutationTypes": [
        "DELETE",
        "EXTEND",
        "CHANGEBRANCH",
        "CHANGELINK",
        "ADDLINK",
        "DELETELINK",
        "DELETECHAIN"
      ],
      "vertexType": "MolecularFragment"
    },
    {
      "lstAPs": [
        {
          "id": 1543100,
          "atomPositionNumber": 1,
          "atomPositionNumberInMol": 46,
          "apClass": {
            "rule": "bridge",
            "subClass": 0,
            "bndTyp": "SINGLE"
          },
          "dirVec": {
            "x": 0.4112,
            "y": -1.2101,
            "z": -0.19930000000000003
          }
        },
        {
          "id": 1543101,
          "atomPositionNumber": 0,
          "atomPositionNumberInMol": 45,
          "apClass": {
            "rule": "bridge",
            "subClass": 0,
            "bndTyp": "SINGLE"
          },
          "dirVec": {
            "x": 0.41179999999999994,
            "y": 1.21,
            "z": -0.19930000000000003
          }
        }
      ],
      "lstSymAPs": [
        {
          "symIds": [
            0,
            1
          ]
        }
      ],
      "mol": {
        "atoms": [
          {
            "elSymbol": "C",
            "p3d": {
              "x": -1.0414,
              "y": 0.7696,
              "z": 0.0732
            }
          },
          {
            "elSymbol": "C",
            "p3d": {
              "x": -1.0417,
              "y": -0.7693,
              "z": 0.0732
            }
          },
          {
            "elSymbol": "H",
            "p3d": {
              "x": -1.6983,
              "y": 1.1431,
              "z": -0.7123
            }
          },
          {
            "elSymbol": "H",
            "p3d": {
              "x": -1.369,
              "y": 1.143,
              "z": 1.0434
            }
          },
          {
            "elSymbol": "H",
            "p3d": {
              "x": -1.3695,
              "y": -1.1425,
              "z": 1.0434
            }
          },
          {
            "elSymbol": "H",
            "p3d": {
              "x": -1.6988,
              "y": -1.1424,
              "z": -0.7123
            }
          }
        ],
        "bonds": [
          {
            "atomIds": [
              0,
              1
            ],
            "bo": "SINGLE"
          },
          {
            "atomIds": [
              0,
              2
            ],
            "bo": "SINGLE"
          },
          {
            "atomIds": [
              0,
              3
            ],
            "bo": "SINGLE"
          },
          {
            "atomIds": [
              1,
              4
            ],
            "bo": "SINGLE"
          },
          {
            "atomIds": [
              1,
              5
            ],
            "bo": "SINGLE"
          }
        ]
      },
      "vertexId": 195851,
      "buildingBlockId": 65,
      "buildingBlockType": "FRAGMENT",
      "isRCV": false,
      "properties": {
        "ATTACHMENT_POINTS": "1#bridge:0:SINGLE:0.4118%1.2100%-0.1993 2#bridge:0:SINGLE:0.4112%-1.2101%-0.1993 "
      },
      "uniquefyingPropertyKeys": [],
      "allowedMutationTypes": [
        "DELETE",
        "EXTEND",
        "CHANGEBRANCH",
        "CHANGELINK",
        "ADDLINK",
        "DELETELINK",
        "DELETECHAIN"
      ],
      "vertexType": "MolecularFragment"
    },
    {
      "lstAPs": [
        {
          "id": 1543102,
          "atomPositionNumber": 0,
          "atomPositionNumberInMol": 51,
          "apClass": {
            "rule": "ATminus",
            "subClass": 0,
            "bndTyp": "ANY"
          },
          "dirVec": {
            "x": 0.0109,
            "y": -0.0071,
            "z": 0.0026
          }
        }
      ],
      "lstSymAPs": [],
      "mol": {
        "atoms": [
          {
            "elSymbol": "ATM",
            "p3d": {
              "x": -0.0096,
              "y": 0.0045,
              "z": -0.0011
            }
          }
        ],
        "bonds": []
      },
      "vertexId": 195852,
      "buildingBlockId": 78,
      "buildingBlockType": "FRAGMENT",
      "isRCV": true,
      "properties": {
        "ATTACHMENT_POINTS": "1#ATminus:0:ANY:0.0109%-0.0071%0.0026 "
      },
      "uniquefyingPropertyKeys": [],
      "allowedMutationTypes": [
        "DELETE",
        "EXTEND",
        "CHANGEBRANCH",
        "CHANGELINK",
        "ADDLINK",
        "DELETELINK",
        "DELETECHAIN"
      ],
      "vertexType": "MolecularFragment"
    },
    {
      "lstAPs": [
        {
          "id": 1543103,
          "atomPositionNumber": 0,
          "atomPositionNumberInMol": 43,
          "apClass": {
            "rule": "ATminus",
            "subClass": 0,
            "bndTyp": "ANY"
          },
          "dirVec": {
            "x": 0.0109,
            "y": -0.0071,
            "z": 0.0026
          }
        }
      ],
      "lstSymAPs": [],
      "mol": {
        "atoms": [
          {
            "elSymbol": "ATM",
            "p3d": {
              "x": -0.0096,
              "y": 0.0045,
              "z": -0.0011
            }
          }
        ],
        "bonds": []
      },
      "vertexId": 195853,
      "buildingBlockId": 78,
      "buildingBlockType": "FRAGMENT",
      "isRCV": true,
      "properties": {
        "ATTACHMENT_POINTS": "1#ATminus:0:ANY:0.0109%-0.0071%0.0026 "
      },
      "uniquefyingPropertyKeys": [],
      "allowedMutationTypes": [
        "DELETE",
        "EXTEND",
        "CHANGEBRANCH",
        "CHANGELINK",
        "ADDLINK",
        "DELETELINK",
        "DELETECHAIN"
      ],
      "vertexType": "MolecularFragment"
    },
    {
      "lstAPs": [
        {
          "id": 1543176,
          "atomPositionNumber": 1,
          "atomPositionNumberInMol": 13,
          "apClass": {
            "rule": "SubRS",
            "subClass": 1,
            "bndTyp": "SINGLE"
          },
          "dirVec": {
            "x": 0.2985,
            "y": 0.384,
            "z": -0.6258
          }
        }
      ],
      "lstSymAPs": [],
      "mol": {
        "atoms": [
          {
            "elSymbol": "C",
            "p3d": {
              "x": -1.0244,
              "y": -0.2225,
              "z": 1.3991
            }
          },
          {
            "elSymbol": "C",
            "p3d": {
              "x": 0.3973,
              "y": -0.042,
              "z": 0.8195
            }
          },
          {
            "elSymbol": "H",
            "p3d": {
              "x": -1.5635,
              "y": -0.9908,
              "z": 0.8263
            }
          },
          {
            "elSymbol": "H",
            "p3d": {
              "x": -0.941,
              "y": -0.535,
              "z": 2.446
            }
          },
          {
            "elSymbol": "H",
            "p3d": {
              "x": -1.5586,
              "y": 0.7335,
              "z": 1.3382
            }
          },
          {
            "elSymbol": "H",
            "p3d": {
              "x": 0.9335,
              "y": 0.7221,
              "z": 1.4011
            }
          },
          {
            "elSymbol": "H",
            "p3d": {
              "x": 0.927,
              "y": -1.0102,
              "z": 0.9001
            }
          }
        ],
        "bonds": [
          {
            "atomIds": [
              0,
              1
            ],
            "bo": "SINGLE"
          },
          {
            "atomIds": [
              0,
              2
            ],
            "bo": "SINGLE"
          },
          {
            "atomIds": [
              0,
              3
            ],
            "bo": "SINGLE"
          },
          {
            "atomIds": [
              0,
              4
            ],
            "bo": "SINGLE"
          },
          {
            "atomIds": [
              1,
              5
            ],
            "bo": "SINGLE"
          },
          {
            "atomIds": [
              1,
              6
            ],
            "bo": "SINGLE"
          }
        ]
      },
      "vertexId": 1197576,
      "buildingBlockId": 24,
      "buildingBlockType": "FRAGMENT",
      "isRCV": false,
      "properties": {
        "ATTACHMENT_POINTS": "2#SubRS:1:SINGLE:0.2985%0.3840%-0.6258 "
      },
      "uniquefyingPropertyKeys": [],
      "allowedMutationTypes": [
        "DELETE",
        "EXTEND",
        "CHANGEBRANCH",
        "CHANGELINK",
        "ADDLINK",
        "DELETELINK",
        "DELETECHAIN"
      ],
      "vertexType": "MolecularFragment"
    },
    {
      "lstAPs": [
        {
          "id": 1543177,
          "atomPositionNumber": 1,
          "atomPositionNumberInMol": 20,
          "apClass": {
            "rule": "SubRM",
            "subClass": 1,
            "bndTyp": "SINGLE"
          },
          "dirVec": {
            "x": 0.2868,
            "y": 0.385,
            "z": -0.643
          }
        }
      ],
      "lstSymAPs": [],
      "mol": {
        "atoms": [
          {
            "elSymbol": "C",
            "p3d": {
              "x": 1.141,
              "y": 1.0262,
              "z": 1.6347
            }
          },
          {
            "elSymbol": "C",
            "p3d": {
              "x": 0.3967,
              "y": -0.0479,
              "z": 0.8227
            }
          },
          {
            "elSymbol": "C",
            "p3d": {
              "x": 1.1459,
              "y": -1.371,
              "z": 0.9201
            }
          },
          {
            "elSymbol": "H",
            "p3d": {
              "x": 2.1461,
              "y": -1.2583,
              "z": 0.4976
            }
          },
          {
            "elSymbol": "H",
            "p3d": {
              "x": 0.6013,
              "y": -2.1408,
              "z": 0.3461
            }
          },
          {
            "elSymbol": "H",
            "p3d": {
              "x": 1.2113,
              "y": -1.6946,
              "z": 1.9559
            }
          },
          {
            "elSymbol": "H",
            "p3d": {
              "x": 2.1541,
              "y": 1.1435,
              "z": 1.2119
            }
          },
          {
            "elSymbol": "H",
            "p3d": {
              "x": 0.6143,
              "y": 1.976,
              "z": 1.5626
            }
          },
          {
            "elSymbol": "H",
            "p3d": {
              "x": 1.2058,
              "y": 0.7088,
              "z": 2.6868
            }
          },
          {
            "elSymbol": "H",
            "p3d": {
              "x": -0.6215,
              "y": -0.1789,
              "z": 1.2377
            }
          }
        ],
        "bonds": [
          {
            "atomIds": [
              0,
              1
            ],
            "bo": "SINGLE"
          },
          {
            "atomIds": [
              1,
              2
            ],
            "bo": "SINGLE"
          },
          {
            "atomIds": [
              2,
              3
            ],
            "bo": "SINGLE"
          },
          {
            "atomIds": [
              2,
              4
            ],
            "bo": "SINGLE"
          },
          {
            "atomIds": [
              2,
              5
            ],
            "bo": "SINGLE"
          },
          {
            "atomIds": [
              0,
              6
            ],
            "bo": "SINGLE"
          },
          {
            "atomIds": [
              0,
              7
            ],
            "bo": "SINGLE"
          },
          {
            "atomIds": [
              0,
              8
            ],
            "bo": "SINGLE"
          },
          {
            "atomIds": [
              1,
              9
            ],
            "bo": "SINGLE"
          }
        ]
      },
      "vertexId": 1197569,
      "buildingBlockId": 25,
      "buildingBlockType": "FRAGMENT",
      "isRCV": false,
      "properties": {
        "ATTACHMENT_POINTS": "2#SubRM:1:SINGLE:0.2868%0.3850%-0.6430 "
      },
      "uniquefyingPropertyKeys": [],
      "allowedMutationTypes": [
        "DELETE",
        "EXTEND",
        "CHANGEBRANCH",
        "CHANGELINK",
        "ADDLINK",
        "DELETELINK",
        "DELETECHAIN"
      ],
      "vertexType": "MolecularFragment"
    },
    {
      "lstAPs": [
        {
          "id": 1543178,
          "atomPositionNumber": 1,
          "atomPositionNumberInMol": 30,
          "apClass": {
            "rule": "SubRS",
            "subClass": 1,
            "bndTyp": "SINGLE"
          },
          "dirVec": {
            "x": 0.2985,
            "y": 0.384,
            "z": -0.6258
          }
        }
      ],
      "lstSymAPs": [],
      "mol": {
        "atoms": [
          {
            "elSymbol": "C",
            "p3d": {
              "x": -1.0244,
              "y": -0.2225,
              "z": 1.3991
            }
          },
          {
            "elSymbol": "C",
            "p3d": {
              "x": 0.3973,
              "y": -0.042,
              "z": 0.8195
            }
          },
          {
            "elSymbol": "H",
            "p3d": {
              "x": -1.5635,
              "y": -0.9908,
              "z": 0.8263
            }
          },
          {
            "elSymbol": "H",
            "p3d": {
              "x": -0.941,
              "y": -0.535,
              "z": 2.446
            }
          },
          {
            "elSymbol": "H",
            "p3d": {
              "x": -1.5586,
              "y": 0.7335,
              "z": 1.3382
            }
          },
          {
            "elSymbol": "H",
            "p3d": {
              "x": 0.9335,
              "y": 0.7221,
              "z": 1.4011
            }
          },
          {
            "elSymbol": "H",
            "p3d": {
              "x": 0.927,
              "y": -1.0102,
              "z": 0.9001
            }
          }
        ],
        "bonds": [
          {
            "atomIds": [
              0,
              1
            ],
            "bo": "SINGLE"
          },
          {
            "atomIds": [
              0,
              2
            ],
            "bo": "SINGLE"
          },
          {
            "atomIds": [
              0,
              3
            ],
            "bo": "SINGLE"
          },
          {
            "atomIds": [
              0,
              4
            ],
            "bo": "SINGLE"
          },
          {
            "atomIds": [
              1,
              5
            ],
            "bo": "SINGLE"
          },
          {
            "atomIds": [
              1,
              6
            ],
            "bo": "SINGLE"
          }
        ]
      },
      "vertexId": 1197971,
      "buildingBlockId": 24,
      "buildingBlockType": "FRAGMENT",
      "isRCV": false,
      "properties": {
        "ATTACHMENT_POINTS": "2#SubRS:1:SINGLE:0.2985%0.3840%-0.6258 "
      },
      "uniquefyingPropertyKeys": [],
      "allowedMutationTypes": [
        "DELETE",
        "EXTEND",
        "CHANGEBRANCH",
        "CHANGELINK",
        "ADDLINK",
        "DELETELINK",
        "DELETECHAIN"
      ],
      "vertexType": "MolecularFragment"
    }
  ],
  "gEdges": [
    {
      "srcAPID": 1543085,
      "trgAPID": 1543087,
      "bondType": "SINGLE"
    },
    {
      "srcAPID": 1543091,
      "trgAPID": 1543092,
      "bondType": "SINGLE"
    },
    {
      "srcAPID": 1543088,
      "trgAPID": 1543093,
      "bondType": "SINGLE"
    },
    {
      "srcAPID": 1543084,
      "trgAPID": 1543094,
      "bondType": "SINGLE"
    },
    {
      "srcAPID": 1543083,
      "trgAPID": 1543096,
      "bondType": "SINGLE"
    },
    {
      "srcAPID": 1543095,
      "trgAPID": 1543098,
      "bondType": "SINGLE"
    },
    {
      "srcAPID": 1543097,
      "trgAPID": 1543100,
      "bondType": "SINGLE"
    },
    {
      "srcAPID": 1543101,
      "trgAPID": 1543102,
      "bondType": "SINGLE"
    },
    {
      "srcAPID": 1543099,
      "trgAPID": 1543103,
      "bondType": "SINGLE"
    },
    {
      "srcAPID": 1543089,
      "trgAPID": 1543176,
      "bondType": "SINGLE"
    },
    {
      "srcAPID": 1543086,
      "trgAPID": 1543177,
      "bondType": "SINGLE"
    },
    {
      "srcAPID": 1543090,
      "trgAPID": 1543178,
      "bondType": "SINGLE"
    }
  ],
  "gRings": [
    {
      "vertices": [
        195846,
        195845,
        195844,
        195848,
        195850,
        195853
      ],
      "bndTyp": "SINGLE"
    },
    {
      "vertices": [
        195847,
        195845,
        195844,
        195849,
        195851,
        195852
      ],
      "bndTyp": "SINGLE"
    }
  ],
  "symVertices": [
    {
      "symIds": [
        195846,
        195847
      ]
    },
    {
      "symIds": [
        195848,
        195849
      ]
    },
    {
      "symIds": [
        195850,
        195851
      ]
    },
    {
      "symIds": [
        195852,
        195853
      ]
    },
    {
      "symIds": [
        1197576,
        1197971
      ]
    }
  ]
}

> <SMILES>
[Pt]12(C#O)[P]3(C(=C(C(=C3C(C([H])([H])O1)([H])[H])C(C([H])([H])[H])([H])[H])C(C([H])([H])[H])([H])[H])C(C([H])([H])O2)([H])[H])C(C([H])([H])[H])(C([H])([H])[H])[H]

$$$$
