M00001880
  CDK     05032207593D

 31 33  0  0  0  0  0  0  0  0999 V2000
   -2.9052    0.2313    1.0046 Pt  0  0  0  0  0  0  0  0  0  0  0  0
   -4.8521    0.1622    0.9998 C   0  0  0  0  0  0  0  0  0  0  0  0
   -5.9936    0.1234    1.0291 O   0  0  0  0  0  0  0  0  0  0  0  0
   -0.6405    0.3198    1.1749 P   0  0  0  0  0  0  0  0  0  0  0  0
    0.3986    0.3855   -0.4049 C   0  0  0  0  0  0  0  0  0  0  0  0
    2.7223    0.3567   -1.3603 C   0  0  0  0  0  0  0  0  0  0  0  0
    0.8109   -0.7294   -2.6197 C   0  0  0  0  0  0  0  0  0  0  0  0
    2.3143   -0.7732   -2.3152 C   0  0  0  0  0  0  0  0  0  0  0  0
   -0.0239   -0.7642   -1.3281 C   0  0  0  0  0  0  0  0  0  0  0  0
    1.8923    0.3206   -0.0643 C   0  0  0  0  0  0  0  0  0  0  0  0
    2.5946    1.3357   -1.8614 H   0  0  0  0  0  0  0  0  0  0  0  0
    0.5704    0.1828   -3.1991 H   0  0  0  0  0  0  0  0  0  0  0  0
    2.5782   -1.7531   -1.8722 H   0  0  0  0  0  0  0  0  0  0  0  0
    0.1158   -1.7522   -0.8401 H   0  0  0  0  0  0  0  0  0  0  0  0
    2.1418   -0.6089    0.4881 H   0  0  0  0  0  0  0  0  0  0  0  0
    0.1805    1.3630   -0.9131 H   0  0  0  0  0  0  0  0  0  0  0  0
    3.7983    0.2761   -1.1168 H   0  0  0  0  0  0  0  0  0  0  0  0
    0.5311   -1.5829   -3.2661 H   0  0  0  0  0  0  0  0  0  0  0  0
    2.8917   -0.6983   -3.2559 H   0  0  0  0  0  0  0  0  0  0  0  0
   -1.1015   -0.7001   -1.5902 H   0  0  0  0  0  0  0  0  0  0  0  0
    2.1992    1.1671    0.5817 H   0  0  0  0  0  0  0  0  0  0  0  0
   -2.7423   -2.1016    1.1740 S   0  0  0  0  0  0  0  0  0  0  0  0
   -0.2857   -1.2196    2.1055 C   0  0  0  0  0  0  0  0  0  0  0  0
   -1.2074   -2.1827    2.0420 C   0  0  0  0  0  0  0  0  0  0  0  0
    0.6485   -1.2980    2.6506 H   0  0  0  0  0  0  0  0  0  0  0  0
   -1.0662   -3.1542    2.5335 H   0  0  0  0  0  0  0  0  0  0  0  0
   -2.9016    2.5754    1.0676 S   0  0  0  0  0  0  0  0  0  0  0  0
   -0.4166    1.8968    2.0839 C   0  0  0  0  0  0  0  0  0  0  0  0
   -1.4022    2.7903    1.9748 C   0  0  0  0  0  0  0  0  0  0  0  0
    0.4938    2.0513    2.6521 H   0  0  0  0  0  0  0  0  0  0  0  0
   -1.3439    3.7804    2.4450 H   0  0  0  0  0  0  0  0  0  0  0  0
  2  3  3  0  0  0  0
  1  2  1  0  0  0  0
  1  4  1  0  0  0  0
  5 16  1  0  0  0  0
  5  9  1  0  0  0  0
  5 10  1  0  0  0  0
  6 11  1  0  0  0  0
  6 17  1  0  0  0  0
  6  8  1  0  0  0  0
  6 10  1  0  0  0  0
  7 12  1  0  0  0  0
  7 18  1  0  0  0  0
  7  9  1  0  0  0  0
  7  8  1  0  0  0  0
  8 13  1  0  0  0  0
  8 19  1  0  0  0  0
  9 14  1  0  0  0  0
  9 20  1  0  0  0  0
 10 15  1  0  0  0  0
 10 21  1  0  0  0  0
  4  5  1  0  0  0  0
  1 22  1  0  0  0  0
 23 24  2  0  0  0  0
 23 25  1  0  0  0  0
 22 24  1  0  0  0  0
 24 26  1  0  0  0  0
  1 27  1  0  0  0  0
 28 29  2  0  0  0  0
 28 30  1  0  0  0  0
 27 29  1  0  0  0  0
 29 31  1  0  0  0  0
  4 28  1  0  0  0  0
  4 23  1  0  0  0  0
M  END
> <PM6_ENERGY>
-30.190

> <UID>
BUWOHPHEGPLQER-PYMUFDHINA-L

> <FITNESS>
1.14253

> <GCODE>
12328

> <GraphENC>
12328 127808_1_0,127809_3_1,127810_78_1,127811_78_1,127812_74_1,127813_74_1,127814_72_1,127815_72_1,127816_1_2,127817_1_2,127818_79_1,127819_79_1,453200_28_1, 127808_2_127809_3_SINGLE_scaff:0_MBisAminoPhosphine:1,127809_0_127810_0_SINGLE_LBisAminoPhosphineN:0_ATplus:0,127809_1_127811_0_SINGLE_LBisAminoPhosphineN:0_ATplus:0,127808_1_127812_0_SINGLE_Xlig:0_Xlig:1,127808_0_127813_0_SINGLE_Xlig:0_Xlig:1,127813_1_127814_1_SINGLE_bridge:1_bridge:0,127812_1_127815_1_SINGLE_bridge:1_bridge:0,127814_2_127816_0_SINGLE_SubBridge:0_hyd:1,127815_2_127817_0_SINGLE_SubBridge:0_hyd:1,127815_0_127818_0_SINGLE_bridge:0_ATminus:0,127814_0_127819_0_SINGLE_bridge:0_ATminus:0,127809_2_453200_0_SINGLE_LBisAminoPhosphineSubR:0_SubRM:1, DENOPTIMRing [vertices=[127810_78_1, 127809_3_1, 127808_1_0, 127812_74_1, 127815_72_1, 127818_79_1]] DENOPTIMRing [vertices=[127811_78_1, 127809_3_1, 127808_1_0, 127813_74_1, 127814_72_1, 127819_79_1]] SymmetricSet [symIds=[127810, 127811]] SymmetricSet [symIds=[127812, 127813]] SymmetricSet [symIds=[127814, 127815]] SymmetricSet [symIds=[127818, 127819]] SymmetricSet [symIds=[127816, 127817]] 

> <GraphJson>
{
  "graphId": 12328,
  "gVertices": [
    {
      "lstAPs": [
        {
          "id": 368969,
          "atomPositionNumber": 0,
          "atomPositionNumberInMol": 0,
          "apClass": {
            "rule": "Xlig",
            "subClass": 0,
            "bndTyp": "SINGLE"
          },
          "dirVec": {
            "x": -2.3339,
            "y": -0.0087,
            "z": 0.8172
          }
        },
        {
          "id": 368970,
          "atomPositionNumber": 0,
          "atomPositionNumberInMol": 0,
          "apClass": {
            "rule": "Xlig",
            "subClass": 0,
            "bndTyp": "SINGLE"
          },
          "dirVec": {
            "x": 2.336,
            "y": -5.0E-4,
            "z": 0.829
          }
        },
        {
          "id": 368971,
          "atomPositionNumber": 0,
          "atomPositionNumberInMol": 0,
          "apClass": {
            "rule": "scaff",
            "subClass": 0,
            "bndTyp": "SINGLE"
          },
          "dirVec": {
            "x": -0.0095,
            "y": 0.0046,
            "z": -1.7113
          }
        }
      ],
      "lstSymAPs": [
        {
          "symIds": [
            0,
            1
          ]
        }
      ],
      "mol": {
        "atoms": [
          {
            "elSymbol": "Pt",
            "p3d": {
              "x": -0.0098,
              "y": 0.0049,
              "z": 0.6289
            }
          },
          {
            "elSymbol": "C",
            "p3d": {
              "x": -6.0E-4,
              "y": 0.0016,
              "z": 2.5609
            }
          },
          {
            "elSymbol": "O",
            "p3d": {
              "x": 0.0025,
              "y": -0.0041,
              "z": 3.6974
            }
          },
          {
            "elSymbol": "Du",
            "p3d": {
              "x": -0.007,
              "y": 1.0013,
              "z": 0.6372
            }
          },
          {
            "elSymbol": "Du",
            "p3d": {
              "x": -0.0014,
              "y": 0.9902,
              "z": 2.5698
            }
          }
        ],
        "bonds": [
          {
            "atomIds": [
              1,
              2
            ],
            "bo": "TRIPLE"
          },
          {
            "atomIds": [
              0,
              1
            ],
            "bo": "SINGLE"
          },
          {
            "atomIds": [
              3,
              0
            ],
            "bo": "SINGLE"
          },
          {
            "atomIds": [
              4,
              1
            ],
            "bo": "SINGLE"
          }
        ]
      },
      "vertexId": 127808,
      "buildingBlockId": 0,
      "buildingBlockType": "SCAFFOLD",
      "isRCV": false,
      "properties": {
        "ATTACHMENT_POINTS": "1#Xlig:0:SINGLE:-2.3339%-0.0087%0.8172,Xlig:0:SINGLE:2.3360%-0.0005%0.8290,scaff:0:SINGLE:-0.0095%0.0046%-1.7113 "
      },
      "uniquefyingPropertyKeys": [],
      "allowedMutationTypes": [
        "DELETE",
        "EXTEND",
        "CHANGEBRANCH",
        "CHANGELINK",
        "ADDLINK",
        "DELETELINK",
        "DELETECHAIN"
      ],
      "vertexType": "MolecularFragment"
    },
    {
      "lstAPs": [
        {
          "id": 368972,
          "atomPositionNumber": 0,
          "atomPositionNumberInMol": 5,
          "apClass": {
            "rule": "LBisAminoPhosphineN",
            "subClass": 0,
            "bndTyp": "SINGLE"
          },
          "dirVec": {
            "x": -1.4836542747353576,
            "y": -0.4538975253672072,
            "z": -2.2251740958626516
          }
        },
        {
          "id": 368973,
          "atomPositionNumber": 0,
          "atomPositionNumberInMol": 5,
          "apClass": {
            "rule": "LBisAminoPhosphineN",
            "subClass": 0,
            "bndTyp": "SINGLE"
          },
          "dirVec": {
            "x": 1.1239153761877054,
            "y": -1.005409361745156,
            "z": -2.3783491914885553
          }
        },
        {
          "id": 368974,
          "atomPositionNumber": 0,
          "atomPositionNumberInMol": 5,
          "apClass": {
            "rule": "LBisAminoPhosphineSubR",
            "subClass": 0,
            "bndTyp": "SINGLE"
          },
          "dirVec": {
            "x": 0.3436803425970725,
            "y": 1.5383345352575741,
            "z": -2.5539605203349587
          }
        },
        {
          "id": 368975,
          "atomPositionNumber": 0,
          "atomPositionNumberInMol": 5,
          "apClass": {
            "rule": "MBisAminoPhosphine",
            "subClass": 1,
            "bndTyp": "SINGLE"
          },
          "dirVec": {
            "x": -0.009795376095970013,
            "y": 0.004895376095970078,
            "z": 0.5928304659627013
          }
        }
      ],
      "lstSymAPs": [
        {
          "symIds": [
            0,
            1
          ]
        }
      ],
      "mol": {
        "atoms": [
          {
            "elSymbol": "P",
            "p3d": {
              "x": -0.009504623904029987,
              "y": 0.004604623904029922,
              "z": -1.6752304659627018
            }
          }
        ],
        "bonds": []
      },
      "vertexId": 127809,
      "buildingBlockId": 2,
      "buildingBlockType": "FRAGMENT",
      "isRCV": false,
      "properties": {
        "ATTACHMENT_POINTS": "1#LBisAminoPhosphineN:0:SINGLE:-1.4837%-0.4539%-2.2252,LBisAminoPhosphineN:0:SINGLE:1.1239%-1.0054%-2.3783,LBisAminoPhosphineSubR:0:SINGLE:0.3437%1.5383%-2.5540,MBisAminoPhosphine:1:SINGLE:-0.0098%0.0049%0.5928 "
      },
      "uniquefyingPropertyKeys": [],
      "allowedMutationTypes": [
        "DELETE",
        "EXTEND",
        "CHANGEBRANCH",
        "CHANGELINK",
        "ADDLINK",
        "DELETELINK",
        "DELETECHAIN"
      ],
      "vertexType": "MolecularFragment"
    },
    {
      "lstAPs": [
        {
          "id": 368976,
          "atomPositionNumber": 0,
          "atomPositionNumberInMol": 6,
          "apClass": {
            "rule": "ATplus",
            "subClass": 0,
            "bndTyp": "ANY"
          },
          "dirVec": {
            "x": -1.4836542747353576,
            "y": -0.4538975253672072,
            "z": -2.2251740958626516
          }
        }
      ],
      "lstSymAPs": [],
      "mol": {
        "atoms": [
          {
            "elSymbol": "ATP",
            "p3d": {
              "x": -1.5025369335754468,
              "y": -0.4597705652293772,
              "z": -2.23221842676815
            }
          }
        ],
        "bonds": []
      },
      "vertexId": 127810,
      "buildingBlockId": 77,
      "buildingBlockType": "FRAGMENT",
      "isRCV": true,
      "properties": {
        "ATTACHMENT_POINTS": "1#ATplus:0:ANY:-1.4837%-0.4539%-2.2252 "
      },
      "uniquefyingPropertyKeys": [],
      "allowedMutationTypes": [
        "DELETE",
        "EXTEND",
        "CHANGEBRANCH",
        "CHANGELINK",
        "ADDLINK",
        "DELETELINK",
        "DELETECHAIN"
      ],
      "vertexType": "MolecularFragment"
    },
    {
      "lstAPs": [
        {
          "id": 368977,
          "atomPositionNumber": 0,
          "atomPositionNumberInMol": 7,
          "apClass": {
            "rule": "ATplus",
            "subClass": 0,
            "bndTyp": "ANY"
          },
          "dirVec": {
            "x": 1.1239153761877054,
            "y": -1.005409361745156,
            "z": -2.3783491914885553
          }
        }
      ],
      "lstSymAPs": [],
      "mol": {
        "atoms": [
          {
            "elSymbol": "ATP",
            "p3d": {
              "x": 1.138136532484957,
              "y": -1.018082128019939,
              "z": -2.38717130623015
            }
          }
        ],
        "bonds": []
      },
      "vertexId": 127811,
      "buildingBlockId": 77,
      "buildingBlockType": "FRAGMENT",
      "isRCV": true,
      "properties": {
        "ATTACHMENT_POINTS": "1#ATplus:0:ANY:1.1239%-1.0054%-2.3783 "
      },
      "uniquefyingPropertyKeys": [],
      "allowedMutationTypes": [
        "DELETE",
        "EXTEND",
        "CHANGEBRANCH",
        "CHANGELINK",
        "ADDLINK",
        "DELETELINK",
        "DELETECHAIN"
      ],
      "vertexType": "MolecularFragment"
    },
    {
      "lstAPs": [
        {
          "id": 368978,
          "atomPositionNumber": 0,
          "atomPositionNumberInMol": 25,
          "apClass": {
            "rule": "Xlig",
            "subClass": 1,
            "bndTyp": "SINGLE"
          },
          "dirVec": {
            "x": -0.102,
            "y": 0.0185,
            "z": -1.0265
          }
        },
        {
          "id": 368979,
          "atomPositionNumber": 0,
          "atomPositionNumberInMol": 25,
          "apClass": {
            "rule": "bridge",
            "subClass": 1,
            "bndTyp": "SINGLE"
          },
          "dirVec": {
            "x": -0.626,
            "y": 2.4866,
            "z": 0.7805
          }
        }
      ],
      "lstSymAPs": [],
      "mol": {
        "atoms": [
          {
            "elSymbol": "S",
            "p3d": {
              "x": -0.3267,
              "y": 2.3403,
              "z": -1.0022
            }
          }
        ],
        "bonds": []
      },
      "vertexId": 127812,
      "buildingBlockId": 73,
      "buildingBlockType": "FRAGMENT",
      "isRCV": false,
      "properties": {
        "ATTACHMENT_POINTS": "1#Xlig:1:SINGLE:-0.1020%0.0185%-1.0265,bridge:1:SINGLE:-0.6260%2.4866%0.7805 "
      },
      "uniquefyingPropertyKeys": [],
      "allowedMutationTypes": [
        "DELETE",
        "EXTEND",
        "CHANGEBRANCH",
        "CHANGELINK",
        "ADDLINK",
        "DELETELINK",
        "DELETECHAIN"
      ],
      "vertexType": "MolecularFragment"
    },
    {
      "lstAPs": [
        {
          "id": 368980,
          "atomPositionNumber": 0,
          "atomPositionNumberInMol": 31,
          "apClass": {
            "rule": "Xlig",
            "subClass": 1,
            "bndTyp": "SINGLE"
          },
          "dirVec": {
            "x": -0.102,
            "y": 0.0185,
            "z": -1.0265
          }
        },
        {
          "id": 368981,
          "atomPositionNumber": 0,
          "atomPositionNumberInMol": 31,
          "apClass": {
            "rule": "bridge",
            "subClass": 1,
            "bndTyp": "SINGLE"
          },
          "dirVec": {
            "x": -0.626,
            "y": 2.4866,
            "z": 0.7805
          }
        }
      ],
      "lstSymAPs": [],
      "mol": {
        "atoms": [
          {
            "elSymbol": "S",
            "p3d": {
              "x": -0.3267,
              "y": 2.3403,
              "z": -1.0022
            }
          }
        ],
        "bonds": []
      },
      "vertexId": 127813,
      "buildingBlockId": 73,
      "buildingBlockType": "FRAGMENT",
      "isRCV": false,
      "properties": {
        "ATTACHMENT_POINTS": "1#Xlig:1:SINGLE:-0.1020%0.0185%-1.0265,bridge:1:SINGLE:-0.6260%2.4866%0.7805 "
      },
      "uniquefyingPropertyKeys": [],
      "allowedMutationTypes": [
        "DELETE",
        "EXTEND",
        "CHANGEBRANCH",
        "CHANGELINK",
        "ADDLINK",
        "DELETELINK",
        "DELETECHAIN"
      ],
      "vertexType": "MolecularFragment"
    },
    {
      "lstAPs": [
        {
          "id": 368982,
          "atomPositionNumber": 0,
          "atomPositionNumberInMol": 32,
          "apClass": {
            "rule": "bridge",
            "subClass": 0,
            "bndTyp": "SINGLE"
          },
          "dirVec": {
            "x": 1.9789000000000003,
            "y": 0.17000000000000004,
            "z": 0.0
          }
        },
        {
          "id": 368983,
          "atomPositionNumber": 1,
          "atomPositionNumberInMol": 33,
          "apClass": {
            "rule": "bridge",
            "subClass": 0,
            "bndTyp": "SINGLE"
          },
          "dirVec": {
            "x": -0.3006,
            "y": -1.4852,
            "z": 0.0
          }
        },
        {
          "id": 368984,
          "atomPositionNumber": 1,
          "atomPositionNumberInMol": 33,
          "apClass": {
            "rule": "SubBridge",
            "subClass": 0,
            "bndTyp": "SINGLE"
          },
          "dirVec": {
            "x": -1.8343,
            "y": 0.6268,
            "z": 0.0
          }
        }
      ],
      "lstSymAPs": [],
      "mol": {
        "atoms": [
          {
            "elSymbol": "C",
            "p3d": {
              "x": 0.6023,
              "y": 0.7833,
              "z": 0.0
            }
          },
          {
            "elSymbol": "C",
            "p3d": {
              "x": -0.4578,
              "y": 0.0135,
              "z": 0.0
            }
          },
          {
            "elSymbol": "H",
            "p3d": {
              "x": 0.4897,
              "y": 1.8574,
              "z": 0.0
            }
          }
        ],
        "bonds": [
          {
            "atomIds": [
              0,
              1
            ],
            "bo": "DOUBLE"
          },
          {
            "atomIds": [
              0,
              2
            ],
            "bo": "SINGLE"
          }
        ]
      },
      "vertexId": 127814,
      "buildingBlockId": 71,
      "buildingBlockType": "FRAGMENT",
      "isRCV": false,
      "properties": {
        "ATTACHMENT_POINTS": "1#bridge:0:SINGLE:1.9789%0.1700%0.0000 2#bridge:0:SINGLE:-0.3006%-1.4852%0.0000,SubBridge:0:SINGLE:-1.8343%0.6268%0.0000 "
      },
      "uniquefyingPropertyKeys": [],
      "allowedMutationTypes": [
        "DELETE",
        "EXTEND",
        "CHANGEBRANCH",
        "CHANGELINK",
        "ADDLINK",
        "DELETELINK",
        "DELETECHAIN"
      ],
      "vertexType": "MolecularFragment"
    },
    {
      "lstAPs": [
        {
          "id": 368985,
          "atomPositionNumber": 0,
          "atomPositionNumberInMol": 26,
          "apClass": {
            "rule": "bridge",
            "subClass": 0,
            "bndTyp": "SINGLE"
          },
          "dirVec": {
            "x": 1.9789000000000003,
            "y": 0.17000000000000004,
            "z": 0.0
          }
        },
        {
          "id": 368986,
          "atomPositionNumber": 1,
          "atomPositionNumberInMol": 27,
          "apClass": {
            "rule": "bridge",
            "subClass": 0,
            "bndTyp": "SINGLE"
          },
          "dirVec": {
            "x": -0.3006,
            "y": -1.4852,
            "z": 0.0
          }
        },
        {
          "id": 368987,
          "atomPositionNumber": 1,
          "atomPositionNumberInMol": 27,
          "apClass": {
            "rule": "SubBridge",
            "subClass": 0,
            "bndTyp": "SINGLE"
          },
          "dirVec": {
            "x": -1.8343,
            "y": 0.6268,
            "z": 0.0
          }
        }
      ],
      "lstSymAPs": [],
      "mol": {
        "atoms": [
          {
            "elSymbol": "C",
            "p3d": {
              "x": 0.6023,
              "y": 0.7833,
              "z": 0.0
            }
          },
          {
            "elSymbol": "C",
            "p3d": {
              "x": -0.4578,
              "y": 0.0135,
              "z": 0.0
            }
          },
          {
            "elSymbol": "H",
            "p3d": {
              "x": 0.4897,
              "y": 1.8574,
              "z": 0.0
            }
          }
        ],
        "bonds": [
          {
            "atomIds": [
              0,
              1
            ],
            "bo": "DOUBLE"
          },
          {
            "atomIds": [
              0,
              2
            ],
            "bo": "SINGLE"
          }
        ]
      },
      "vertexId": 127815,
      "buildingBlockId": 71,
      "buildingBlockType": "FRAGMENT",
      "isRCV": false,
      "properties": {
        "ATTACHMENT_POINTS": "1#bridge:0:SINGLE:1.9789%0.1700%0.0000 2#bridge:0:SINGLE:-0.3006%-1.4852%0.0000,SubBridge:0:SINGLE:-1.8343%0.6268%0.0000 "
      },
      "uniquefyingPropertyKeys": [],
      "allowedMutationTypes": [
        "DELETE",
        "EXTEND",
        "CHANGEBRANCH",
        "CHANGELINK",
        "ADDLINK",
        "DELETELINK",
        "DELETECHAIN"
      ],
      "vertexType": "MolecularFragment"
    },
    {
      "lstAPs": [
        {
          "id": 368988,
          "atomPositionNumber": 0,
          "atomPositionNumberInMol": 35,
          "apClass": {
            "rule": "hyd",
            "subClass": 1,
            "bndTyp": "SINGLE"
          },
          "dirVec": {
            "x": 0.4589,
            "y": -1.751,
            "z": 0.3869
          }
        }
      ],
      "lstSymAPs": [],
      "mol": {
        "atoms": [
          {
            "elSymbol": "H",
            "p3d": {
              "x": 0.1925,
              "y": -2.5024,
              "z": 1.1483
            }
          }
        ],
        "bonds": []
      },
      "vertexId": 127816,
      "buildingBlockId": 0,
      "buildingBlockType": "CAP",
      "isRCV": false,
      "properties": {
        "ATTACHMENT_POINTS": "1#hyd:1:SINGLE:0.4589%-1.7510%0.3869 "
      },
      "uniquefyingPropertyKeys": [],
      "allowedMutationTypes": [
        "DELETE",
        "EXTEND",
        "CHANGEBRANCH",
        "CHANGELINK",
        "ADDLINK",
        "DELETELINK",
        "DELETECHAIN"
      ],
      "vertexType": "MolecularFragment"
    },
    {
      "lstAPs": [
        {
          "id": 368989,
          "atomPositionNumber": 0,
          "atomPositionNumberInMol": 29,
          "apClass": {
            "rule": "hyd",
            "subClass": 1,
            "bndTyp": "SINGLE"
          },
          "dirVec": {
            "x": 0.4589,
            "y": -1.751,
            "z": 0.3869
          }
        }
      ],
      "lstSymAPs": [],
      "mol": {
        "atoms": [
          {
            "elSymbol": "H",
            "p3d": {
              "x": 0.1925,
              "y": -2.5024,
              "z": 1.1483
            }
          }
        ],
        "bonds": []
      },
      "vertexId": 127817,
      "buildingBlockId": 0,
      "buildingBlockType": "CAP",
      "isRCV": false,
      "properties": {
        "ATTACHMENT_POINTS": "1#hyd:1:SINGLE:0.4589%-1.7510%0.3869 "
      },
      "uniquefyingPropertyKeys": [],
      "allowedMutationTypes": [
        "DELETE",
        "EXTEND",
        "CHANGEBRANCH",
        "CHANGELINK",
        "ADDLINK",
        "DELETELINK",
        "DELETECHAIN"
      ],
      "vertexType": "MolecularFragment"
    },
    {
      "lstAPs": [
        {
          "id": 368990,
          "atomPositionNumber": 0,
          "atomPositionNumberInMol": 30,
          "apClass": {
            "rule": "ATminus",
            "subClass": 0,
            "bndTyp": "ANY"
          },
          "dirVec": {
            "x": 0.0109,
            "y": -0.0071,
            "z": 0.0026
          }
        }
      ],
      "lstSymAPs": [],
      "mol": {
        "atoms": [
          {
            "elSymbol": "ATM",
            "p3d": {
              "x": -0.0096,
              "y": 0.0045,
              "z": -0.0011
            }
          }
        ],
        "bonds": []
      },
      "vertexId": 127818,
      "buildingBlockId": 78,
      "buildingBlockType": "FRAGMENT",
      "isRCV": true,
      "properties": {
        "ATTACHMENT_POINTS": "1#ATminus:0:ANY:0.0109%-0.0071%0.0026 "
      },
      "uniquefyingPropertyKeys": [],
      "allowedMutationTypes": [
        "DELETE",
        "EXTEND",
        "CHANGEBRANCH",
        "CHANGELINK",
        "ADDLINK",
        "DELETELINK",
        "DELETECHAIN"
      ],
      "vertexType": "MolecularFragment"
    },
    {
      "lstAPs": [
        {
          "id": 368991,
          "atomPositionNumber": 0,
          "atomPositionNumberInMol": 36,
          "apClass": {
            "rule": "ATminus",
            "subClass": 0,
            "bndTyp": "ANY"
          },
          "dirVec": {
            "x": 0.0109,
            "y": -0.0071,
            "z": 0.0026
          }
        }
      ],
      "lstSymAPs": [],
      "mol": {
        "atoms": [
          {
            "elSymbol": "ATM",
            "p3d": {
              "x": -0.0096,
              "y": 0.0045,
              "z": -0.0011
            }
          }
        ],
        "bonds": []
      },
      "vertexId": 127819,
      "buildingBlockId": 78,
      "buildingBlockType": "FRAGMENT",
      "isRCV": true,
      "properties": {
        "ATTACHMENT_POINTS": "1#ATminus:0:ANY:0.0109%-0.0071%0.0026 "
      },
      "uniquefyingPropertyKeys": [],
      "allowedMutationTypes": [
        "DELETE",
        "EXTEND",
        "CHANGEBRANCH",
        "CHANGELINK",
        "ADDLINK",
        "DELETELINK",
        "DELETECHAIN"
      ],
      "vertexType": "MolecularFragment"
    },
    {
      "lstAPs": [
        {
          "id": 369064,
          "atomPositionNumber": 0,
          "atomPositionNumberInMol": 8,
          "apClass": {
            "rule": "SubRM",
            "subClass": 1,
            "bndTyp": "SINGLE"
          },
          "dirVec": {
            "x": 0.2917,
            "y": 0.3929,
            "z": -0.6365
          }
        }
      ],
      "lstSymAPs": [],
      "mol": {
        "atoms": [
          {
            "elSymbol": "C",
            "p3d": {
              "x": 1.7002,
              "y": 0.56,
              "z": -1.2045
            }
          },
          {
            "elSymbol": "C",
            "p3d": {
              "x": 3.564,
              "y": -0.7339,
              "z": -2.2652
            }
          },
          {
            "elSymbol": "C",
            "p3d": {
              "x": 2.9237,
              "y": 1.5034,
              "z": -3.1926
            }
          },
          {
            "elSymbol": "C",
            "p3d": {
              "x": 3.4145,
              "y": 0.0994,
              "z": -3.5498
            }
          },
          {
            "elSymbol": "C",
            "p3d": {
              "x": 1.5576,
              "y": 1.3879,
              "z": -2.5024
            }
          },
          {
            "elSymbol": "C",
            "p3d": {
              "x": 2.203,
              "y": -0.843,
              "z": -1.5702
            }
          },
          {
            "elSymbol": "H",
            "p3d": {
              "x": 4.3384,
              "y": -0.3241,
              "z": -1.6106
            }
          },
          {
            "elSymbol": "H",
            "p3d": {
              "x": 3.6361,
              "y": 2.0524,
              "z": -2.5991
            }
          },
          {
            "elSymbol": "H",
            "p3d": {
              "x": 2.7828,
              "y": -0.3911,
              "z": -4.2916
            }
          },
          {
            "elSymbol": "H",
            "p3d": {
              "x": 0.7737,
              "y": 0.9833,
              "z": -3.15
            }
          },
          {
            "elSymbol": "H",
            "p3d": {
              "x": 1.4815,
              "y": -1.3988,
              "z": -2.1783
            }
          },
          {
            "elSymbol": "H",
            "p3d": {
              "x": 2.3445,
              "y": 1.0609,
              "z": -0.4835
            }
          },
          {
            "elSymbol": "H",
            "p3d": {
              "x": 3.8429,
              "y": -1.7623,
              "z": -2.577
            }
          },
          {
            "elSymbol": "H",
            "p3d": {
              "x": 2.7428,
              "y": 2.0124,
              "z": -4.146
            }
          },
          {
            "elSymbol": "H",
            "p3d": {
              "x": 4.4291,
              "y": 0.2183,
              "z": -3.9628
            }
          },
          {
            "elSymbol": "H",
            "p3d": {
              "x": 1.2819,
              "y": 2.4034,
              "z": -2.1821
            }
          },
          {
            "elSymbol": "H",
            "p3d": {
              "x": 2.3734,
              "y": -1.3662,
              "z": -0.6149
            }
          }
        ],
        "bonds": [
          {
            "atomIds": [
              0,
              11
            ],
            "bo": "SINGLE"
          },
          {
            "atomIds": [
              0,
              4
            ],
            "bo": "SINGLE"
          },
          {
            "atomIds": [
              0,
              5
            ],
            "bo": "SINGLE"
          },
          {
            "atomIds": [
              1,
              6
            ],
            "bo": "SINGLE"
          },
          {
            "atomIds": [
              1,
              12
            ],
            "bo": "SINGLE"
          },
          {
            "atomIds": [
              1,
              3
            ],
            "bo": "SINGLE"
          },
          {
            "atomIds": [
              1,
              5
            ],
            "bo": "SINGLE"
          },
          {
            "atomIds": [
              2,
              7
            ],
            "bo": "SINGLE"
          },
          {
            "atomIds": [
              2,
              13
            ],
            "bo": "SINGLE"
          },
          {
            "atomIds": [
              2,
              4
            ],
            "bo": "SINGLE"
          },
          {
            "atomIds": [
              2,
              3
            ],
            "bo": "SINGLE"
          },
          {
            "atomIds": [
              3,
              8
            ],
            "bo": "SINGLE"
          },
          {
            "atomIds": [
              3,
              14
            ],
            "bo": "SINGLE"
          },
          {
            "atomIds": [
              4,
              9
            ],
            "bo": "SINGLE"
          },
          {
            "atomIds": [
              4,
              15
            ],
            "bo": "SINGLE"
          },
          {
            "atomIds": [
              5,
              10
            ],
            "bo": "SINGLE"
          },
          {
            "atomIds": [
              5,
              16
            ],
            "bo": "SINGLE"
          }
        ]
      },
      "vertexId": 453200,
      "buildingBlockId": 27,
      "buildingBlockType": "FRAGMENT",
      "isRCV": false,
      "properties": {
        "ATTACHMENT_POINTS": "1#SubRM:1:SINGLE:0.2917%0.3929%-0.6365 "
      },
      "uniquefyingPropertyKeys": [],
      "allowedMutationTypes": [
        "DELETE",
        "EXTEND",
        "CHANGEBRANCH",
        "CHANGELINK",
        "ADDLINK",
        "DELETELINK",
        "DELETECHAIN"
      ],
      "vertexType": "MolecularFragment"
    }
  ],
  "gEdges": [
    {
      "srcAPID": 368971,
      "trgAPID": 368975,
      "bondType": "SINGLE"
    },
    {
      "srcAPID": 368972,
      "trgAPID": 368976,
      "bondType": "SINGLE"
    },
    {
      "srcAPID": 368973,
      "trgAPID": 368977,
      "bondType": "SINGLE"
    },
    {
      "srcAPID": 368970,
      "trgAPID": 368978,
      "bondType": "SINGLE"
    },
    {
      "srcAPID": 368969,
      "trgAPID": 368980,
      "bondType": "SINGLE"
    },
    {
      "srcAPID": 368981,
      "trgAPID": 368983,
      "bondType": "SINGLE"
    },
    {
      "srcAPID": 368979,
      "trgAPID": 368986,
      "bondType": "SINGLE"
    },
    {
      "srcAPID": 368984,
      "trgAPID": 368988,
      "bondType": "SINGLE"
    },
    {
      "srcAPID": 368987,
      "trgAPID": 368989,
      "bondType": "SINGLE"
    },
    {
      "srcAPID": 368985,
      "trgAPID": 368990,
      "bondType": "SINGLE"
    },
    {
      "srcAPID": 368982,
      "trgAPID": 368991,
      "bondType": "SINGLE"
    },
    {
      "srcAPID": 368974,
      "trgAPID": 369064,
      "bondType": "SINGLE"
    }
  ],
  "gRings": [
    {
      "vertices": [
        127810,
        127809,
        127808,
        127812,
        127815,
        127818
      ],
      "bndTyp": "SINGLE"
    },
    {
      "vertices": [
        127811,
        127809,
        127808,
        127813,
        127814,
        127819
      ],
      "bndTyp": "SINGLE"
    }
  ],
  "symVertices": [
    {
      "symIds": [
        127810,
        127811
      ]
    },
    {
      "symIds": [
        127812,
        127813
      ]
    },
    {
      "symIds": [
        127814,
        127815
      ]
    },
    {
      "symIds": [
        127818,
        127819
      ]
    },
    {
      "symIds": [
        127816,
        127817
      ]
    }
  ]
}

> <SMILES>
[Pt]12(C#O)[P](C3([H])C(C([H])([H])C(C([H])([H])C3([H])[H])([H])[H])([H])[H])(C(=C(S1)[H])[H])C(=C(S2)[H])[H]

$$$$
