M00013791
  CDK     05032208533D

 49 53  0  0  0  0  0  0  0  0999 V2000
   -2.6881    0.1968   -0.7588 Pt  0  0  0  0  0  0  0  0  0  0  0  0
   -4.6444    0.2508   -0.9435 C   0  0  0  0  0  0  0  0  0  0  0  0
   -5.7780    0.2899   -1.0557 O   0  0  0  0  0  0  0  0  0  0  0  0
    0.0271    0.8849    1.1390 C   0  0  0  0  0  0  0  0  0  0  0  0
    0.7081   -0.0865    1.7820 C   0  0  0  0  0  0  0  0  0  0  0  0
    1.2169    0.0521    3.1820 C   0  0  0  0  0  0  0  0  0  0  0  0
    0.3473   -0.0117    3.8768 H   0  0  0  0  0  0  0  0  0  0  0  0
    1.6441    1.0659    3.3358 H   0  0  0  0  0  0  0  0  0  0  0  0
    2.2569   -1.0063    3.5656 C   0  0  0  0  0  0  0  0  0  0  0  0
    3.2220   -0.7903    3.0669 H   0  0  0  0  0  0  0  0  0  0  0  0
    2.4592   -0.9545    4.6529 H   0  0  0  0  0  0  0  0  0  0  0  0
    1.7672   -2.4049    3.1833 C   0  0  0  0  0  0  0  0  0  0  0  0
    0.7993   -2.6188    3.6809 H   0  0  0  0  0  0  0  0  0  0  0  0
    2.4718   -3.1750    3.5518 H   0  0  0  0  0  0  0  0  0  0  0  0
    1.6101   -2.5294    1.6642 C   0  0  0  0  0  0  0  0  0  0  0  0
    2.6122   -2.6133    1.1880 H   0  0  0  0  0  0  0  0  0  0  0  0
    1.0887   -3.4848    1.4249 H   0  0  0  0  0  0  0  0  0  0  0  0
    0.8793   -1.3847    1.0390 C   0  0  0  0  0  0  0  0  0  0  0  0
    0.3338   -1.4408   -0.1938 C   0  0  0  0  0  0  0  0  0  0  0  0
   -0.4286    0.2135   -0.5335 P   0  0  0  0  0  0  0  0  0  0  0  0
    0.5008    1.0699   -1.8666 C   0  0  0  0  0  0  0  0  0  0  0  0
    1.9112    2.3793   -3.8719 C   0  0  0  0  0  0  0  0  0  0  0  0
   -0.1747    1.9544   -2.7079 C   0  0  0  0  0  0  0  0  0  0  0  0
    1.8711    0.8268   -2.0103 C   0  0  0  0  0  0  0  0  0  0  0  0
    2.5755    1.4859   -3.0208 C   0  0  0  0  0  0  0  0  0  0  0  0
    0.5433    2.6124   -3.7162 C   0  0  0  0  0  0  0  0  0  0  0  0
   -1.2526    2.1662   -2.6022 H   0  0  0  0  0  0  0  0  0  0  0  0
    2.4084    0.1369   -1.3566 H   0  0  0  0  0  0  0  0  0  0  0  0
    3.6425    1.3087   -3.1466 H   0  0  0  0  0  0  0  0  0  0  0  0
    0.0270    3.3132   -4.3736 H   0  0  0  0  0  0  0  0  0  0  0  0
    2.4664    2.8949   -4.6565 H   0  0  0  0  0  0  0  0  0  0  0  0
   -2.6507    2.2333   -1.0407 O   0  0  0  0  0  0  0  0  0  0  0  0
   -2.0242    4.2171   -0.3349 O   0  0  0  0  0  0  0  0  0  0  0  0
   -2.2004    3.0499   -0.0703 C   0  0  0  0  0  0  0  0  0  0  0  0
   -0.4548    2.2180    1.5691 C   0  0  0  0  0  0  0  0  0  0  0  0
   -1.9564    2.4277    1.2951 C   0  0  0  0  0  0  0  0  0  0  0  0
    0.1375    3.0285    1.0795 H   0  0  0  0  0  0  0  0  0  0  0  0
   -0.2726    2.3569    2.6583 H   0  0  0  0  0  0  0  0  0  0  0  0
   -2.5375    1.4876    1.4322 H   0  0  0  0  0  0  0  0  0  0  0  0
   -2.3689    3.1279    2.0562 H   0  0  0  0  0  0  0  0  0  0  0  0
   -3.0515   -1.8004   -0.4505 O   0  0  0  0  0  0  0  0  0  0  0  0
   -2.4790   -3.9111   -0.2705 O   0  0  0  0  0  0  0  0  0  0  0  0
   -2.2708   -2.8339   -0.7824 C   0  0  0  0  0  0  0  0  0  0  0  0
    0.1953   -2.5377   -1.1783 C   0  0  0  0  0  0  0  0  0  0  0  0
   -1.1967   -2.5840   -1.8293 C   0  0  0  0  0  0  0  0  0  0  0  0
    0.3908   -3.5208   -0.6865 H   0  0  0  0  0  0  0  0  0  0  0  0
    0.9714   -2.4465   -1.9719 H   0  0  0  0  0  0  0  0  0  0  0  0
   -1.4246   -1.6866   -2.4381 H   0  0  0  0  0  0  0  0  0  0  0  0
   -1.2305   -3.4272   -2.5557 H   0  0  0  0  0  0  0  0  0  0  0  0
  2  3  3  0  0  0  0
  1  2  1  0  0  0  0
  4  5  2  0  0  0  0
  5  6  1  0  0  0  0
  6  7  1  0  0  0  0
  8  6  1  0  0  0  0
  9  6  1  0  0  0  0
 10  9  1  0  0  0  0
 11  9  1  0  0  0  0
 12  9  1  0  0  0  0
 13 12  1  0  0  0  0
 14 12  1  0  0  0  0
 15 12  1  0  0  0  0
 15 18  1  0  0  0  0
 16 15  1  0  0  0  0
 17 15  1  0  0  0  0
 18  5  1  0  0  0  0
 19 18  2  0  0  0  0
 19 20  1  0  0  0  0
 20  4  1  0  0  0  0
  1 20  1  0  0  0  0
 21 24  1  0  0  0  0
 24 25  2  0  0  0  0
 22 25  1  0  0  0  0
 22 26  2  0  0  0  0
 23 26  1  0  0  0  0
 21 23  2  0  0  0  0
 25 29  1  0  0  0  0
 26 30  1  0  0  0  0
 22 31  1  0  0  0  0
 23 27  1  0  0  0  0
 24 28  1  0  0  0  0
 20 21  1  0  0  0  0
 33 34  2  0  0  0  0
 34 32  1  0  0  0  0
  1 32  1  0  0  0  0
 35 36  1  0  0  0  0
 35 37  1  0  0  0  0
 35 38  1  0  0  0  0
 36 39  1  0  0  0  0
 36 40  1  0  0  0  0
 34 36  1  0  0  0  0
 42 43  2  0  0  0  0
 43 41  1  0  0  0  0
  1 41  1  0  0  0  0
 44 45  1  0  0  0  0
 44 46  1  0  0  0  0
 44 47  1  0  0  0  0
 45 48  1  0  0  0  0
 45 49  1  0  0  0  0
 43 45  1  0  0  0  0
  4 35  1  0  0  0  0
 19 44  1  0  0  0  0
M  END
> <PM6_ENERGY>
-621.210

> <UID>
CCUKORFZALLOKG-TYTFGAACNA-L

> <FITNESS>
1.13981

> <GCODE>
24871

> <GraphENC>
24871 177016_1_0,177017_46_1,177018_78_1,177019_78_1,177020_76_1,177021_76_1,177022_66_1,177023_66_1,177024_79_1,177025_79_1,878109_29_1, 177016_2_177017_3_SINGLE_scaff:0_MPhosphole:1,177017_1_177018_0_SINGLE_LPhospholeSubAlpha:0_ATplus:0,177017_0_177019_0_SINGLE_LPhospholeSubAlpha:0_ATplus:0,177016_0_177020_0_SINGLE_Xlig:0_Xlig:1,177016_1_177021_0_SINGLE_Xlig:0_Xlig:1,177021_1_177022_0_SINGLE_bridge:1_bridge:0,177020_1_177023_0_SINGLE_bridge:1_bridge:0,177022_1_177024_0_SINGLE_bridge:0_ATminus:0,177023_1_177025_0_SINGLE_bridge:0_ATminus:0,177017_2_878109_0_SINGLE_LPhospholeSubR:0_SubArS:1, DENOPTIMRing [vertices=[177018_78_1, 177017_46_1, 177016_1_0, 177021_76_1, 177022_66_1, 177024_79_1]] DENOPTIMRing [vertices=[177019_78_1, 177017_46_1, 177016_1_0, 177020_76_1, 177023_66_1, 177025_79_1]] SymmetricSet [symIds=[177018, 177019]] SymmetricSet [symIds=[177020, 177021]] SymmetricSet [symIds=[177022, 177023]] SymmetricSet [symIds=[177024, 177025]] 

> <GraphJson>
{
  "graphId": 24871,
  "gVertices": [
    {
      "lstAPs": [
        {
          "id": 1027689,
          "atomPositionNumber": 0,
          "atomPositionNumberInMol": 0,
          "apClass": {
            "rule": "Xlig",
            "subClass": 0,
            "bndTyp": "SINGLE"
          },
          "dirVec": {
            "x": -2.3339,
            "y": -0.0087,
            "z": 0.8172
          }
        },
        {
          "id": 1027690,
          "atomPositionNumber": 0,
          "atomPositionNumberInMol": 0,
          "apClass": {
            "rule": "Xlig",
            "subClass": 0,
            "bndTyp": "SINGLE"
          },
          "dirVec": {
            "x": 2.336,
            "y": -5.0E-4,
            "z": 0.829
          }
        },
        {
          "id": 1027691,
          "atomPositionNumber": 0,
          "atomPositionNumberInMol": 0,
          "apClass": {
            "rule": "scaff",
            "subClass": 0,
            "bndTyp": "SINGLE"
          },
          "dirVec": {
            "x": -0.0095,
            "y": 0.0046,
            "z": -1.7113
          }
        }
      ],
      "lstSymAPs": [
        {
          "symIds": [
            0,
            1
          ]
        }
      ],
      "mol": {
        "atoms": [
          {
            "elSymbol": "Pt",
            "p3d": {
              "x": -0.0098,
              "y": 0.0049,
              "z": 0.6289
            }
          },
          {
            "elSymbol": "C",
            "p3d": {
              "x": -6.0E-4,
              "y": 0.0016,
              "z": 2.5609
            }
          },
          {
            "elSymbol": "O",
            "p3d": {
              "x": 0.0025,
              "y": -0.0041,
              "z": 3.6974
            }
          },
          {
            "elSymbol": "Du",
            "p3d": {
              "x": -0.007,
              "y": 1.0013,
              "z": 0.6372
            }
          },
          {
            "elSymbol": "Du",
            "p3d": {
              "x": -0.0014,
              "y": 0.9902,
              "z": 2.5698
            }
          }
        ],
        "bonds": [
          {
            "atomIds": [
              1,
              2
            ],
            "bo": "TRIPLE"
          },
          {
            "atomIds": [
              0,
              1
            ],
            "bo": "SINGLE"
          },
          {
            "atomIds": [
              3,
              0
            ],
            "bo": "SINGLE"
          },
          {
            "atomIds": [
              4,
              1
            ],
            "bo": "SINGLE"
          }
        ]
      },
      "vertexId": 177016,
      "buildingBlockId": 0,
      "buildingBlockType": "SCAFFOLD",
      "isRCV": false,
      "properties": {
        "ATTACHMENT_POINTS": "1#Xlig:0:SINGLE:-2.3339%-0.0087%0.8172,Xlig:0:SINGLE:2.3360%-0.0005%0.8290,scaff:0:SINGLE:-0.0095%0.0046%-1.7113 "
      },
      "uniquefyingPropertyKeys": [],
      "allowedMutationTypes": [
        "DELETE",
        "EXTEND",
        "CHANGEBRANCH",
        "CHANGELINK",
        "ADDLINK",
        "DELETELINK",
        "DELETECHAIN"
      ],
      "vertexType": "MolecularFragment"
    },
    {
      "lstAPs": [
        {
          "id": 1027692,
          "atomPositionNumber": 0,
          "atomPositionNumberInMol": 5,
          "apClass": {
            "rule": "LPhospholeSubAlpha",
            "subClass": 0,
            "bndTyp": "SINGLE"
          },
          "dirVec": {
            "x": -0.2290937897654505,
            "y": 2.845703088769645,
            "z": -2.160777178013941
          }
        },
        {
          "id": 1027693,
          "atomPositionNumber": 15,
          "atomPositionNumberInMol": 20,
          "apClass": {
            "rule": "LPhospholeSubAlpha",
            "subClass": 0,
            "bndTyp": "SINGLE"
          },
          "dirVec": {
            "x": 1.433131987709915,
            "y": -2.382198919642542,
            "z": -2.3644685748284955
          }
        },
        {
          "id": 1027694,
          "atomPositionNumber": 16,
          "atomPositionNumberInMol": 21,
          "apClass": {
            "rule": "LPhospholeSubR",
            "subClass": 0,
            "bndTyp": "SINGLE"
          },
          "dirVec": {
            "x": -1.5463847239590087,
            "y": -0.5771547632366629,
            "z": -2.390802741050389
          }
        },
        {
          "id": 1027695,
          "atomPositionNumber": 16,
          "atomPositionNumberInMol": 21,
          "apClass": {
            "rule": "MPhosphole",
            "subClass": 1,
            "bndTyp": "SINGLE"
          },
          "dirVec": {
            "x": -0.009793254624231097,
            "y": 0.00489325462423156,
            "z": 0.5762815720879806
          }
        }
      ],
      "lstSymAPs": [
        {
          "symIds": [
            0,
            1
          ]
        }
      ],
      "mol": {
        "atoms": [
          {
            "elSymbol": "C",
            "p3d": {
              "x": 0.4856274899334586,
              "y": 1.5762109946729261,
              "z": -2.3981624458202697
            }
          },
          {
            "elSymbol": "C",
            "p3d": {
              "x": 1.611236365338333,
              "y": 1.373370494187636,
              "z": -3.1032865419711895
            }
          },
          {
            "elSymbol": "C",
            "p3d": {
              "x": 2.4357447337692792,
              "y": 2.454179591262286,
              "z": -3.7461023290113147
            }
          },
          {
            "elSymbol": "H",
            "p3d": {
              "x": 3.013329858302042,
              "y": 2.9492383411059415,
              "z": -2.965319966171508
            }
          },
          {
            "elSymbol": "H",
            "p3d": {
              "x": 1.7655347227917784,
              "y": 3.1882174911944157,
              "z": -4.177199710873893
            }
          },
          {
            "elSymbol": "C",
            "p3d": {
              "x": 3.3704725078088114,
              "y": 1.9349274128578793,
              "z": -4.81920613277933
            }
          },
          {
            "elSymbol": "H",
            "p3d": {
              "x": 2.8010380192699245,
              "y": 1.634671134744067,
              "z": -5.695306983546921
            }
          },
          {
            "elSymbol": "H",
            "p3d": {
              "x": 4.063166027586396,
              "y": 2.7363018238259396,
              "z": -5.1175729223249
            }
          },
          {
            "elSymbol": "C",
            "p3d": {
              "x": 4.158814796123447,
              "y": 0.7520137905885036,
              "z": -4.309093303393133
            }
          },
          {
            "elSymbol": "H",
            "p3d": {
              "x": 4.68771796173765,
              "y": 1.0256455622701075,
              "z": -3.4028599532400605
            }
          },
          {
            "elSymbol": "H",
            "p3d": {
              "x": 4.902904515496089,
              "y": 0.4695459391300859,
              "z": -5.061936143842859
            }
          },
          {
            "elSymbol": "C",
            "p3d": {
              "x": 3.2435442631862434,
              "y": -0.4253802058638042,
              "z": -4.056152107351634
            }
          },
          {
            "elSymbol": "H",
            "p3d": {
              "x": 2.8721188104648205,
              "y": -0.8087562236056864,
              "z": -4.996874012109391
            }
          },
          {
            "elSymbol": "H",
            "p3d": {
              "x": 3.7861506052430647,
              "y": -1.2138094024882655,
              "z": -3.5637274842164546
            }
          },
          {
            "elSymbol": "C",
            "p3d": {
              "x": 2.0355845146824265,
              "y": -0.050886930720320245,
              "z": -3.1866848377739334
            }
          },
          {
            "elSymbol": "C",
            "p3d": {
              "x": 1.303944062398438,
              "y": -0.9192241744201626,
              "z": -2.4789488560791755
            }
          },
          {
            "elSymbol": "P",
            "p3d": {
              "x": -0.009506745375768903,
              "y": 0.0046067453757684396,
              "z": -1.658681572087981
            }
          }
        ],
        "bonds": [
          {
            "atomIds": [
              0,
              1
            ],
            "bo": "DOUBLE"
          },
          {
            "atomIds": [
              1,
              2
            ],
            "bo": "SINGLE"
          },
          {
            "atomIds": [
              2,
              3
            ],
            "bo": "SINGLE"
          },
          {
            "atomIds": [
              4,
              2
            ],
            "bo": "SINGLE"
          },
          {
            "atomIds": [
              5,
              2
            ],
            "bo": "SINGLE"
          },
          {
            "atomIds": [
              6,
              5
            ],
            "bo": "SINGLE"
          },
          {
            "atomIds": [
              7,
              5
            ],
            "bo": "SINGLE"
          },
          {
            "atomIds": [
              8,
              5
            ],
            "bo": "SINGLE"
          },
          {
            "atomIds": [
              9,
              8
            ],
            "bo": "SINGLE"
          },
          {
            "atomIds": [
              10,
              8
            ],
            "bo": "SINGLE"
          },
          {
            "atomIds": [
              11,
              8
            ],
            "bo": "SINGLE"
          },
          {
            "atomIds": [
              11,
              14
            ],
            "bo": "SINGLE"
          },
          {
            "atomIds": [
              12,
              11
            ],
            "bo": "SINGLE"
          },
          {
            "atomIds": [
              13,
              11
            ],
            "bo": "SINGLE"
          },
          {
            "atomIds": [
              14,
              1
            ],
            "bo": "SINGLE"
          },
          {
            "atomIds": [
              15,
              14
            ],
            "bo": "DOUBLE"
          },
          {
            "atomIds": [
              15,
              16
            ],
            "bo": "SINGLE"
          },
          {
            "atomIds": [
              16,
              0
            ],
            "bo": "SINGLE"
          }
        ]
      },
      "vertexId": 177017,
      "buildingBlockId": 45,
      "buildingBlockType": "FRAGMENT",
      "isRCV": false,
      "properties": {
        "ATTACHMENT_POINTS": "1#LPhospholeSubAlpha:0:SINGLE:-0.2291%2.8457%-2.1608 16#LPhospholeSubAlpha:0:SINGLE:1.4331%-2.3822%-2.3645 17#LPhospholeSubR:0:SINGLE:-1.5464%-0.5772%-2.3908,MPhosphole:1:SINGLE:-0.0098%0.0049%0.5763 "
      },
      "uniquefyingPropertyKeys": [],
      "allowedMutationTypes": [
        "DELETE",
        "EXTEND",
        "CHANGEBRANCH",
        "CHANGELINK",
        "ADDLINK",
        "DELETELINK",
        "DELETECHAIN"
      ],
      "vertexType": "MolecularFragment"
    },
    {
      "lstAPs": [
        {
          "id": 1027696,
          "atomPositionNumber": 0,
          "atomPositionNumberInMol": 22,
          "apClass": {
            "rule": "ATplus",
            "subClass": 0,
            "bndTyp": "ANY"
          },
          "dirVec": {
            "x": 1.433131987709915,
            "y": -2.382198919642542,
            "z": -2.3644685748284955
          }
        }
      ],
      "lstSymAPs": [],
      "mol": {
        "atoms": [
          {
            "elSymbol": "ATP",
            "p3d": {
              "x": 1.4349729282333077,
              "y": -2.4030464523100608,
              "z": -2.3628372196660403
            }
          }
        ],
        "bonds": []
      },
      "vertexId": 177018,
      "buildingBlockId": 77,
      "buildingBlockType": "FRAGMENT",
      "isRCV": true,
      "properties": {
        "ATTACHMENT_POINTS": "1#ATplus:0:ANY:1.4331%-2.3822%-2.3645 "
      },
      "uniquefyingPropertyKeys": [],
      "allowedMutationTypes": [
        "DELETE",
        "EXTEND",
        "CHANGEBRANCH",
        "CHANGELINK",
        "ADDLINK",
        "DELETELINK",
        "DELETECHAIN"
      ],
      "vertexType": "MolecularFragment"
    },
    {
      "lstAPs": [
        {
          "id": 1027697,
          "atomPositionNumber": 0,
          "atomPositionNumberInMol": 23,
          "apClass": {
            "rule": "ATplus",
            "subClass": 0,
            "bndTyp": "ANY"
          },
          "dirVec": {
            "x": -0.22909378976545047,
            "y": 2.845703088769645,
            "z": -2.160777178013941
          }
        }
      ],
      "lstSymAPs": [],
      "mol": {
        "atoms": [
          {
            "elSymbol": "ATP",
            "p3d": {
              "x": -0.23925828749796996,
              "y": 2.863757328762798,
              "z": -2.1574011738499577
            }
          }
        ],
        "bonds": []
      },
      "vertexId": 177019,
      "buildingBlockId": 77,
      "buildingBlockType": "FRAGMENT",
      "isRCV": true,
      "properties": {
        "ATTACHMENT_POINTS": "1#ATplus:0:ANY:-0.2291%2.8457%-2.1608 "
      },
      "uniquefyingPropertyKeys": [],
      "allowedMutationTypes": [
        "DELETE",
        "EXTEND",
        "CHANGEBRANCH",
        "CHANGELINK",
        "ADDLINK",
        "DELETELINK",
        "DELETECHAIN"
      ],
      "vertexType": "MolecularFragment"
    },
    {
      "lstAPs": [
        {
          "id": 1027698,
          "atomPositionNumber": 0,
          "atomPositionNumberInMol": 35,
          "apClass": {
            "rule": "Xlig",
            "subClass": 1,
            "bndTyp": "SINGLE"
          },
          "dirVec": {
            "x": 2.9612,
            "y": 0.482,
            "z": 3.1597
          }
        },
        {
          "id": 1027699,
          "atomPositionNumber": 2,
          "atomPositionNumberInMol": 37,
          "apClass": {
            "rule": "bridge",
            "subClass": 1,
            "bndTyp": "SINGLE"
          },
          "dirVec": {
            "x": 0.31479999999999997,
            "y": 0.7222,
            "z": 2.0817
          }
        }
      ],
      "lstSymAPs": [],
      "mol": {
        "atoms": [
          {
            "elSymbol": "O",
            "p3d": {
              "x": 2.5349,
              "y": 1.3185,
              "z": 1.3621
            }
          },
          {
            "elSymbol": "O",
            "p3d": {
              "x": 0.8537,
              "y": 1.7439,
              "z": 0.0154
            }
          },
          {
            "elSymbol": "C",
            "p3d": {
              "x": 1.2704,
              "y": 1.2787,
              "z": 1.0674
            }
          }
        ],
        "bonds": [
          {
            "atomIds": [
              1,
              2
            ],
            "bo": "DOUBLE"
          },
          {
            "atomIds": [
              2,
              0
            ],
            "bo": "SINGLE"
          }
        ]
      },
      "vertexId": 177020,
      "buildingBlockId": 75,
      "buildingBlockType": "FRAGMENT",
      "isRCV": false,
      "properties": {
        "ATTACHMENT_POINTS": "1#Xlig:1:SINGLE:2.9612%0.4820%3.1597 3#bridge:1:SINGLE:0.3148%0.7222%2.0817 "
      },
      "uniquefyingPropertyKeys": [],
      "allowedMutationTypes": [
        "DELETE",
        "EXTEND",
        "CHANGEBRANCH",
        "CHANGELINK",
        "ADDLINK",
        "DELETELINK",
        "DELETECHAIN"
      ],
      "vertexType": "MolecularFragment"
    },
    {
      "lstAPs": [
        {
          "id": 1027700,
          "atomPositionNumber": 0,
          "atomPositionNumberInMol": 45,
          "apClass": {
            "rule": "Xlig",
            "subClass": 1,
            "bndTyp": "SINGLE"
          },
          "dirVec": {
            "x": 2.9612,
            "y": 0.482,
            "z": 3.1597
          }
        },
        {
          "id": 1027701,
          "atomPositionNumber": 2,
          "atomPositionNumberInMol": 47,
          "apClass": {
            "rule": "bridge",
            "subClass": 1,
            "bndTyp": "SINGLE"
          },
          "dirVec": {
            "x": 0.31479999999999997,
            "y": 0.7222,
            "z": 2.0817
          }
        }
      ],
      "lstSymAPs": [],
      "mol": {
        "atoms": [
          {
            "elSymbol": "O",
            "p3d": {
              "x": 2.5349,
              "y": 1.3185,
              "z": 1.3621
            }
          },
          {
            "elSymbol": "O",
            "p3d": {
              "x": 0.8537,
              "y": 1.7439,
              "z": 0.0154
            }
          },
          {
            "elSymbol": "C",
            "p3d": {
              "x": 1.2704,
              "y": 1.2787,
              "z": 1.0674
            }
          }
        ],
        "bonds": [
          {
            "atomIds": [
              1,
              2
            ],
            "bo": "DOUBLE"
          },
          {
            "atomIds": [
              2,
              0
            ],
            "bo": "SINGLE"
          }
        ]
      },
      "vertexId": 177021,
      "buildingBlockId": 75,
      "buildingBlockType": "FRAGMENT",
      "isRCV": false,
      "properties": {
        "ATTACHMENT_POINTS": "1#Xlig:1:SINGLE:2.9612%0.4820%3.1597 3#bridge:1:SINGLE:0.3148%0.7222%2.0817 "
      },
      "uniquefyingPropertyKeys": [],
      "allowedMutationTypes": [
        "DELETE",
        "EXTEND",
        "CHANGEBRANCH",
        "CHANGELINK",
        "ADDLINK",
        "DELETELINK",
        "DELETECHAIN"
      ],
      "vertexType": "MolecularFragment"
    },
    {
      "lstAPs": [
        {
          "id": 1027702,
          "atomPositionNumber": 1,
          "atomPositionNumberInMol": 49,
          "apClass": {
            "rule": "bridge",
            "subClass": 0,
            "bndTyp": "SINGLE"
          },
          "dirVec": {
            "x": 0.4112,
            "y": -1.2101,
            "z": -0.19930000000000003
          }
        },
        {
          "id": 1027703,
          "atomPositionNumber": 0,
          "atomPositionNumberInMol": 48,
          "apClass": {
            "rule": "bridge",
            "subClass": 0,
            "bndTyp": "SINGLE"
          },
          "dirVec": {
            "x": 0.41179999999999994,
            "y": 1.21,
            "z": -0.19930000000000003
          }
        }
      ],
      "lstSymAPs": [
        {
          "symIds": [
            0,
            1
          ]
        }
      ],
      "mol": {
        "atoms": [
          {
            "elSymbol": "C",
            "p3d": {
              "x": -1.0414,
              "y": 0.7696,
              "z": 0.0732
            }
          },
          {
            "elSymbol": "C",
            "p3d": {
              "x": -1.0417,
              "y": -0.7693,
              "z": 0.0732
            }
          },
          {
            "elSymbol": "H",
            "p3d": {
              "x": -1.6983,
              "y": 1.1431,
              "z": -0.7123
            }
          },
          {
            "elSymbol": "H",
            "p3d": {
              "x": -1.369,
              "y": 1.143,
              "z": 1.0434
            }
          },
          {
            "elSymbol": "H",
            "p3d": {
              "x": -1.3695,
              "y": -1.1425,
              "z": 1.0434
            }
          },
          {
            "elSymbol": "H",
            "p3d": {
              "x": -1.6988,
              "y": -1.1424,
              "z": -0.7123
            }
          }
        ],
        "bonds": [
          {
            "atomIds": [
              0,
              1
            ],
            "bo": "SINGLE"
          },
          {
            "atomIds": [
              0,
              2
            ],
            "bo": "SINGLE"
          },
          {
            "atomIds": [
              0,
              3
            ],
            "bo": "SINGLE"
          },
          {
            "atomIds": [
              1,
              4
            ],
            "bo": "SINGLE"
          },
          {
            "atomIds": [
              1,
              5
            ],
            "bo": "SINGLE"
          }
        ]
      },
      "vertexId": 177022,
      "buildingBlockId": 65,
      "buildingBlockType": "FRAGMENT",
      "isRCV": false,
      "properties": {
        "ATTACHMENT_POINTS": "1#bridge:0:SINGLE:0.4118%1.2100%-0.1993 2#bridge:0:SINGLE:0.4112%-1.2101%-0.1993 "
      },
      "uniquefyingPropertyKeys": [],
      "allowedMutationTypes": [
        "DELETE",
        "EXTEND",
        "CHANGEBRANCH",
        "CHANGELINK",
        "ADDLINK",
        "DELETELINK",
        "DELETECHAIN"
      ],
      "vertexType": "MolecularFragment"
    },
    {
      "lstAPs": [
        {
          "id": 1027704,
          "atomPositionNumber": 1,
          "atomPositionNumberInMol": 39,
          "apClass": {
            "rule": "bridge",
            "subClass": 0,
            "bndTyp": "SINGLE"
          },
          "dirVec": {
            "x": 0.4112,
            "y": -1.2101,
            "z": -0.19930000000000003
          }
        },
        {
          "id": 1027705,
          "atomPositionNumber": 0,
          "atomPositionNumberInMol": 38,
          "apClass": {
            "rule": "bridge",
            "subClass": 0,
            "bndTyp": "SINGLE"
          },
          "dirVec": {
            "x": 0.41179999999999994,
            "y": 1.21,
            "z": -0.19930000000000003
          }
        }
      ],
      "lstSymAPs": [
        {
          "symIds": [
            0,
            1
          ]
        }
      ],
      "mol": {
        "atoms": [
          {
            "elSymbol": "C",
            "p3d": {
              "x": -1.0414,
              "y": 0.7696,
              "z": 0.0732
            }
          },
          {
            "elSymbol": "C",
            "p3d": {
              "x": -1.0417,
              "y": -0.7693,
              "z": 0.0732
            }
          },
          {
            "elSymbol": "H",
            "p3d": {
              "x": -1.6983,
              "y": 1.1431,
              "z": -0.7123
            }
          },
          {
            "elSymbol": "H",
            "p3d": {
              "x": -1.369,
              "y": 1.143,
              "z": 1.0434
            }
          },
          {
            "elSymbol": "H",
            "p3d": {
              "x": -1.3695,
              "y": -1.1425,
              "z": 1.0434
            }
          },
          {
            "elSymbol": "H",
            "p3d": {
              "x": -1.6988,
              "y": -1.1424,
              "z": -0.7123
            }
          }
        ],
        "bonds": [
          {
            "atomIds": [
              0,
              1
            ],
            "bo": "SINGLE"
          },
          {
            "atomIds": [
              0,
              2
            ],
            "bo": "SINGLE"
          },
          {
            "atomIds": [
              0,
              3
            ],
            "bo": "SINGLE"
          },
          {
            "atomIds": [
              1,
              4
            ],
            "bo": "SINGLE"
          },
          {
            "atomIds": [
              1,
              5
            ],
            "bo": "SINGLE"
          }
        ]
      },
      "vertexId": 177023,
      "buildingBlockId": 65,
      "buildingBlockType": "FRAGMENT",
      "isRCV": false,
      "properties": {
        "ATTACHMENT_POINTS": "1#bridge:0:SINGLE:0.4118%1.2100%-0.1993 2#bridge:0:SINGLE:0.4112%-1.2101%-0.1993 "
      },
      "uniquefyingPropertyKeys": [],
      "allowedMutationTypes": [
        "DELETE",
        "EXTEND",
        "CHANGEBRANCH",
        "CHANGELINK",
        "ADDLINK",
        "DELETELINK",
        "DELETECHAIN"
      ],
      "vertexType": "MolecularFragment"
    },
    {
      "lstAPs": [
        {
          "id": 1027706,
          "atomPositionNumber": 0,
          "atomPositionNumberInMol": 54,
          "apClass": {
            "rule": "ATminus",
            "subClass": 0,
            "bndTyp": "ANY"
          },
          "dirVec": {
            "x": 0.0109,
            "y": -0.0071,
            "z": 0.0026
          }
        }
      ],
      "lstSymAPs": [],
      "mol": {
        "atoms": [
          {
            "elSymbol": "ATM",
            "p3d": {
              "x": -0.0096,
              "y": 0.0045,
              "z": -0.0011
            }
          }
        ],
        "bonds": []
      },
      "vertexId": 177024,
      "buildingBlockId": 78,
      "buildingBlockType": "FRAGMENT",
      "isRCV": true,
      "properties": {
        "ATTACHMENT_POINTS": "1#ATminus:0:ANY:0.0109%-0.0071%0.0026 "
      },
      "uniquefyingPropertyKeys": [],
      "allowedMutationTypes": [
        "DELETE",
        "EXTEND",
        "CHANGEBRANCH",
        "CHANGELINK",
        "ADDLINK",
        "DELETELINK",
        "DELETECHAIN"
      ],
      "vertexType": "MolecularFragment"
    },
    {
      "lstAPs": [
        {
          "id": 1027707,
          "atomPositionNumber": 0,
          "atomPositionNumberInMol": 44,
          "apClass": {
            "rule": "ATminus",
            "subClass": 0,
            "bndTyp": "ANY"
          },
          "dirVec": {
            "x": 0.0109,
            "y": -0.0071,
            "z": 0.0026
          }
        }
      ],
      "lstSymAPs": [],
      "mol": {
        "atoms": [
          {
            "elSymbol": "ATM",
            "p3d": {
              "x": -0.0096,
              "y": 0.0045,
              "z": -0.0011
            }
          }
        ],
        "bonds": []
      },
      "vertexId": 177025,
      "buildingBlockId": 78,
      "buildingBlockType": "FRAGMENT",
      "isRCV": true,
      "properties": {
        "ATTACHMENT_POINTS": "1#ATminus:0:ANY:0.0109%-0.0071%0.0026 "
      },
      "uniquefyingPropertyKeys": [],
      "allowedMutationTypes": [
        "DELETE",
        "EXTEND",
        "CHANGEBRANCH",
        "CHANGELINK",
        "ADDLINK",
        "DELETELINK",
        "DELETECHAIN"
      ],
      "vertexType": "MolecularFragment"
    },
    {
      "lstAPs": [
        {
          "id": 1027768,
          "atomPositionNumber": 0,
          "atomPositionNumberInMol": 24,
          "apClass": {
            "rule": "SubArS",
            "subClass": 1,
            "bndTyp": "SINGLE"
          },
          "dirVec": {
            "x": 0.2973,
            "y": 0.3873,
            "z": -0.6389
          }
        }
      ],
      "lstSymAPs": [],
      "mol": {
        "atoms": [
          {
            "elSymbol": "C",
            "p3d": {
              "x": 1.6995,
              "y": 0.5593,
              "z": -1.2083
            }
          },
          {
            "elSymbol": "C",
            "p3d": {
              "x": 4.2563,
              "y": 0.8754,
              "z": -2.2592
            }
          },
          {
            "elSymbol": "C",
            "p3d": {
              "x": 2.3334,
              "y": 1.79,
              "z": -1.1338
            }
          },
          {
            "elSymbol": "C",
            "p3d": {
              "x": 2.3422,
              "y": -0.5107,
              "z": -1.8125
            }
          },
          {
            "elSymbol": "C",
            "p3d": {
              "x": 3.612,
              "y": -0.3527,
              "z": -2.3321
            }
          },
          {
            "elSymbol": "C",
            "p3d": {
              "x": 3.6062,
              "y": 1.9513,
              "z": -1.6526
            }
          },
          {
            "elSymbol": "H",
            "p3d": {
              "x": 1.833,
              "y": 2.6461,
              "z": -0.6488
            }
          },
          {
            "elSymbol": "H",
            "p3d": {
              "x": 1.8361,
              "y": -1.4773,
              "z": -1.887
            }
          },
          {
            "elSymbol": "H",
            "p3d": {
              "x": 4.115,
              "y": -1.2043,
              "z": -2.8152
            }
          },
          {
            "elSymbol": "H",
            "p3d": {
              "x": 4.1097,
              "y": 2.9214,
              "z": -1.5842
            }
          },
          {
            "elSymbol": "H",
            "p3d": {
              "x": 5.2498,
              "y": 0.9926,
              "z": -2.665
            }
          }
        ],
        "bonds": [
          {
            "atomIds": [
              0,
              3
            ],
            "bo": "SINGLE"
          },
          {
            "atomIds": [
              3,
              4
            ],
            "bo": "DOUBLE"
          },
          {
            "atomIds": [
              1,
              4
            ],
            "bo": "SINGLE"
          },
          {
            "atomIds": [
              1,
              5
            ],
            "bo": "DOUBLE"
          },
          {
            "atomIds": [
              2,
              5
            ],
            "bo": "SINGLE"
          },
          {
            "atomIds": [
              0,
              2
            ],
            "bo": "DOUBLE"
          },
          {
            "atomIds": [
              4,
              8
            ],
            "bo": "SINGLE"
          },
          {
            "atomIds": [
              5,
              9
            ],
            "bo": "SINGLE"
          },
          {
            "atomIds": [
              1,
              10
            ],
            "bo": "SINGLE"
          },
          {
            "atomIds": [
              2,
              6
            ],
            "bo": "SINGLE"
          },
          {
            "atomIds": [
              3,
              7
            ],
            "bo": "SINGLE"
          }
        ]
      },
      "vertexId": 878109,
      "buildingBlockId": 28,
      "buildingBlockType": "FRAGMENT",
      "isRCV": false,
      "properties": {
        "ATTACHMENT_POINTS": "1#SubArS:1:SINGLE:0.2973%0.3873%-0.6389 "
      },
      "uniquefyingPropertyKeys": [],
      "allowedMutationTypes": [
        "DELETE",
        "EXTEND",
        "CHANGEBRANCH",
        "CHANGELINK",
        "ADDLINK",
        "DELETELINK",
        "DELETECHAIN"
      ],
      "vertexType": "MolecularFragment"
    }
  ],
  "gEdges": [
    {
      "srcAPID": 1027691,
      "trgAPID": 1027695,
      "bondType": "SINGLE"
    },
    {
      "srcAPID": 1027693,
      "trgAPID": 1027696,
      "bondType": "SINGLE"
    },
    {
      "srcAPID": 1027692,
      "trgAPID": 1027697,
      "bondType": "SINGLE"
    },
    {
      "srcAPID": 1027689,
      "trgAPID": 1027698,
      "bondType": "SINGLE"
    },
    {
      "srcAPID": 1027690,
      "trgAPID": 1027700,
      "bondType": "SINGLE"
    },
    {
      "srcAPID": 1027701,
      "trgAPID": 1027702,
      "bondType": "SINGLE"
    },
    {
      "srcAPID": 1027699,
      "trgAPID": 1027704,
      "bondType": "SINGLE"
    },
    {
      "srcAPID": 1027703,
      "trgAPID": 1027706,
      "bondType": "SINGLE"
    },
    {
      "srcAPID": 1027705,
      "trgAPID": 1027707,
      "bondType": "SINGLE"
    },
    {
      "srcAPID": 1027694,
      "trgAPID": 1027768,
      "bondType": "SINGLE"
    }
  ],
  "gRings": [
    {
      "vertices": [
        177018,
        177017,
        177016,
        177021,
        177022,
        177024
      ],
      "bndTyp": "SINGLE"
    },
    {
      "vertices": [
        177019,
        177017,
        177016,
        177020,
        177023,
        177025
      ],
      "bndTyp": "SINGLE"
    }
  ],
  "symVertices": [
    {
      "symIds": [
        177018,
        177019
      ]
    },
    {
      "symIds": [
        177020,
        177021
      ]
    },
    {
      "symIds": [
        177022,
        177023
      ]
    },
    {
      "symIds": [
        177024,
        177025
      ]
    }
  ]
}

> <SMILES>
[Pt]12(C#O)[P]3(C(=C4C(C(C(C(C4=C3C(C([H])([H])C(=O)O1)([H])[H])([H])[H])([H])[H])([H])[H])([H])[H])C(C([H])([H])C(=O)O2)([H])[H])C=5C(=C(C(=C(C5[H])[H])[H])[H])[H]

$$$$
