M00013789
  CDK     05032208523D

 48 51  0  0  0  0  0  0  0  0999 V2000
   -2.6010   -0.9965   -0.3178 Pt  0  0  0  0  0  0  0  0  0  0  0  0
   -4.5607   -1.1515   -0.3900 C   0  0  0  0  0  0  0  0  0  0  0  0
   -5.6954   -1.2475   -0.4376 O   0  0  0  0  0  0  0  0  0  0  0  0
    0.1541    0.8540   -0.9680 C   0  0  0  0  0  0  0  0  0  0  0  0
    0.8277    1.4911    0.0138 C   0  0  0  0  0  0  0  0  0  0  0  0
    1.3535    2.8855   -0.1180 C   0  0  0  0  0  0  0  0  0  0  0  0
    0.4913    3.5899   -0.0566 H   0  0  0  0  0  0  0  0  0  0  0  0
    1.7885    3.0387   -1.1283 H   0  0  0  0  0  0  0  0  0  0  0  0
    2.3911    3.2539    0.9483 C   0  0  0  0  0  0  0  0  0  0  0  0
    3.3502    2.7409    0.7398 H   0  0  0  0  0  0  0  0  0  0  0  0
    2.6097    4.3381    0.8982 H   0  0  0  0  0  0  0  0  0  0  0  0
    1.8849    2.8790    2.3431 C   0  0  0  0  0  0  0  0  0  0  0  0
    0.9236    3.3920    2.5500 H   0  0  0  0  0  0  0  0  0  0  0  0
    2.5897    3.2358    3.1185 H   0  0  0  0  0  0  0  0  0  0  0  0
    1.7023    1.3626    2.4656 C   0  0  0  0  0  0  0  0  0  0  0  0
    2.6961    0.8701    2.5549 H   0  0  0  0  0  0  0  0  0  0  0  0
    1.1715    1.1314    3.4176 H   0  0  0  0  0  0  0  0  0  0  0  0
    0.9688    0.7500    1.3157 C   0  0  0  0  0  0  0  0  0  0  0  0
    0.3940   -0.4697    1.3693 C   0  0  0  0  0  0  0  0  0  0  0  0
   -0.3363   -0.8071   -0.3012 P   0  0  0  0  0  0  0  0  0  0  0  0
    2.1229   -1.8974   -1.0950 C   0  0  0  0  0  0  0  0  0  0  0  0
    0.6391   -2.2407   -1.0873 C   0  0  0  0  0  0  0  0  0  0  0  0
    0.1045   -2.5319   -2.4782 C   0  0  0  0  0  0  0  0  0  0  0  0
   -0.9822   -2.7452   -2.5048 H   0  0  0  0  0  0  0  0  0  0  0  0
    0.5917   -3.4229   -2.9014 H   0  0  0  0  0  0  0  0  0  0  0  0
    0.2791   -1.7258   -3.2060 H   0  0  0  0  0  0  0  0  0  0  0  0
    2.6989   -2.7330   -1.5243 H   0  0  0  0  0  0  0  0  0  0  0  0
    2.3631   -1.0237   -1.7176 H   0  0  0  0  0  0  0  0  0  0  0  0
    2.5376   -1.7221   -0.0937 H   0  0  0  0  0  0  0  0  0  0  0  0
    0.4700   -3.1403   -0.4349 H   0  0  0  0  0  0  0  0  0  0  0  0
   -2.5844   -1.2464   -2.3585 O   0  0  0  0  0  0  0  0  0  0  0  0
   -1.8916   -0.5341   -4.3193 O   0  0  0  0  0  0  0  0  0  0  0  0
   -2.0920   -0.2809   -3.1520 C   0  0  0  0  0  0  0  0  0  0  0  0
   -0.3132    1.3068   -2.2995 C   0  0  0  0  0  0  0  0  0  0  0  0
   -1.8210    1.0714   -2.5122 C   0  0  0  0  0  0  0  0  0  0  0  0
    0.2674    0.8120   -3.1141 H   0  0  0  0  0  0  0  0  0  0  0  0
   -0.1052    2.3928   -2.4279 H   0  0  0  0  0  0  0  0  0  0  0  0
   -2.3993    1.2096   -1.5706 H   0  0  0  0  0  0  0  0  0  0  0  0
   -2.2164    1.8501   -3.2026 H   0  0  0  0  0  0  0  0  0  0  0  0
   -2.9874   -0.7061    1.6794 O   0  0  0  0  0  0  0  0  0  0  0  0
   -2.4620   -0.5378    3.8036 O   0  0  0  0  0  0  0  0  0  0  0  0
   -2.2337   -1.0448    2.7280 C   0  0  0  0  0  0  0  0  0  0  0  0
    0.2332   -1.4463    2.4703 C   0  0  0  0  0  0  0  0  0  0  0  0
   -1.1589   -2.0968    2.4983 C   0  0  0  0  0  0  0  0  0  0  0  0
    0.4090   -0.9447    3.4531 H   0  0  0  0  0  0  0  0  0  0  0  0
    1.0128   -2.2380    2.4043 H   0  0  0  0  0  0  0  0  0  0  0  0
   -1.3786   -2.7062    1.6008 H   0  0  0  0  0  0  0  0  0  0  0  0
   -1.2072   -2.8183    3.3449 H   0  0  0  0  0  0  0  0  0  0  0  0
  2  3  3  0  0  0  0
  1  2  1  0  0  0  0
  4  5  2  0  0  0  0
  5  6  1  0  0  0  0
  6  7  1  0  0  0  0
  8  6  1  0  0  0  0
  9  6  1  0  0  0  0
 10  9  1  0  0  0  0
 11  9  1  0  0  0  0
 12  9  1  0  0  0  0
 13 12  1  0  0  0  0
 14 12  1  0  0  0  0
 15 12  1  0  0  0  0
 15 18  1  0  0  0  0
 16 15  1  0  0  0  0
 17 15  1  0  0  0  0
 18  5  1  0  0  0  0
 19 18  2  0  0  0  0
 19 20  1  0  0  0  0
 20  4  1  0  0  0  0
  1 20  1  0  0  0  0
 21 22  1  0  0  0  0
 22 23  1  0  0  0  0
 23 24  1  0  0  0  0
 23 25  1  0  0  0  0
 23 26  1  0  0  0  0
 21 27  1  0  0  0  0
 21 28  1  0  0  0  0
 21 29  1  0  0  0  0
 22 30  1  0  0  0  0
 20 22  1  0  0  0  0
 32 33  2  0  0  0  0
 33 31  1  0  0  0  0
  1 31  1  0  0  0  0
 34 35  1  0  0  0  0
 34 36  1  0  0  0  0
 34 37  1  0  0  0  0
 35 38  1  0  0  0  0
 35 39  1  0  0  0  0
 33 35  1  0  0  0  0
 41 42  2  0  0  0  0
 42 40  1  0  0  0  0
  1 40  1  0  0  0  0
 43 44  1  0  0  0  0
 43 45  1  0  0  0  0
 43 46  1  0  0  0  0
 44 47  1  0  0  0  0
 44 48  1  0  0  0  0
 42 44  1  0  0  0  0
  4 34  1  0  0  0  0
 19 43  1  0  0  0  0
M  END
> <PM6_ENERGY>
-804.948

> <UID>
YVZFOUYBZWXYID-FULWLZEZNA-L

> <FITNESS>
1.13975

> <GCODE>
24868

> <GraphENC>
24868 177016_1_0,177017_46_1,177018_78_1,177019_78_1,177020_76_1,177021_76_1,177022_66_1,177023_66_1,177024_79_1,177025_79_1,878107_26_1, 177016_2_177017_3_SINGLE_scaff:0_MPhosphole:1,177017_1_177018_0_SINGLE_LPhospholeSubAlpha:0_ATplus:0,177017_0_177019_0_SINGLE_LPhospholeSubAlpha:0_ATplus:0,177016_0_177020_0_SINGLE_Xlig:0_Xlig:1,177016_1_177021_0_SINGLE_Xlig:0_Xlig:1,177021_1_177022_0_SINGLE_bridge:1_bridge:0,177020_1_177023_0_SINGLE_bridge:1_bridge:0,177022_1_177024_0_SINGLE_bridge:0_ATminus:0,177023_1_177025_0_SINGLE_bridge:0_ATminus:0,177017_2_878107_0_SINGLE_LPhospholeSubR:0_SubRM:1, DENOPTIMRing [vertices=[177018_78_1, 177017_46_1, 177016_1_0, 177021_76_1, 177022_66_1, 177024_79_1]] DENOPTIMRing [vertices=[177019_78_1, 177017_46_1, 177016_1_0, 177020_76_1, 177023_66_1, 177025_79_1]] SymmetricSet [symIds=[177018, 177019]] SymmetricSet [symIds=[177020, 177021]] SymmetricSet [symIds=[177022, 177023]] SymmetricSet [symIds=[177024, 177025]] 

> <GraphJson>
{
  "graphId": 24868,
  "gVertices": [
    {
      "lstAPs": [
        {
          "id": 1027609,
          "atomPositionNumber": 0,
          "atomPositionNumberInMol": 0,
          "apClass": {
            "rule": "Xlig",
            "subClass": 0,
            "bndTyp": "SINGLE"
          },
          "dirVec": {
            "x": -2.3339,
            "y": -0.0087,
            "z": 0.8172
          }
        },
        {
          "id": 1027610,
          "atomPositionNumber": 0,
          "atomPositionNumberInMol": 0,
          "apClass": {
            "rule": "Xlig",
            "subClass": 0,
            "bndTyp": "SINGLE"
          },
          "dirVec": {
            "x": 2.336,
            "y": -5.0E-4,
            "z": 0.829
          }
        },
        {
          "id": 1027611,
          "atomPositionNumber": 0,
          "atomPositionNumberInMol": 0,
          "apClass": {
            "rule": "scaff",
            "subClass": 0,
            "bndTyp": "SINGLE"
          },
          "dirVec": {
            "x": -0.0095,
            "y": 0.0046,
            "z": -1.7113
          }
        }
      ],
      "lstSymAPs": [
        {
          "symIds": [
            0,
            1
          ]
        }
      ],
      "mol": {
        "atoms": [
          {
            "elSymbol": "Pt",
            "p3d": {
              "x": -0.0098,
              "y": 0.0049,
              "z": 0.6289
            }
          },
          {
            "elSymbol": "C",
            "p3d": {
              "x": -6.0E-4,
              "y": 0.0016,
              "z": 2.5609
            }
          },
          {
            "elSymbol": "O",
            "p3d": {
              "x": 0.0025,
              "y": -0.0041,
              "z": 3.6974
            }
          },
          {
            "elSymbol": "Du",
            "p3d": {
              "x": -0.007,
              "y": 1.0013,
              "z": 0.6372
            }
          },
          {
            "elSymbol": "Du",
            "p3d": {
              "x": -0.0014,
              "y": 0.9902,
              "z": 2.5698
            }
          }
        ],
        "bonds": [
          {
            "atomIds": [
              1,
              2
            ],
            "bo": "TRIPLE"
          },
          {
            "atomIds": [
              0,
              1
            ],
            "bo": "SINGLE"
          },
          {
            "atomIds": [
              3,
              0
            ],
            "bo": "SINGLE"
          },
          {
            "atomIds": [
              4,
              1
            ],
            "bo": "SINGLE"
          }
        ]
      },
      "vertexId": 177016,
      "buildingBlockId": 0,
      "buildingBlockType": "SCAFFOLD",
      "isRCV": false,
      "properties": {
        "ATTACHMENT_POINTS": "1#Xlig:0:SINGLE:-2.3339%-0.0087%0.8172,Xlig:0:SINGLE:2.3360%-0.0005%0.8290,scaff:0:SINGLE:-0.0095%0.0046%-1.7113 "
      },
      "uniquefyingPropertyKeys": [],
      "allowedMutationTypes": [
        "DELETE",
        "EXTEND",
        "CHANGEBRANCH",
        "CHANGELINK",
        "ADDLINK",
        "DELETELINK",
        "DELETECHAIN"
      ],
      "vertexType": "MolecularFragment"
    },
    {
      "lstAPs": [
        {
          "id": 1027612,
          "atomPositionNumber": 0,
          "atomPositionNumberInMol": 5,
          "apClass": {
            "rule": "LPhospholeSubAlpha",
            "subClass": 0,
            "bndTyp": "SINGLE"
          },
          "dirVec": {
            "x": -0.2290937897654505,
            "y": 2.845703088769645,
            "z": -2.160777178013941
          }
        },
        {
          "id": 1027613,
          "atomPositionNumber": 15,
          "atomPositionNumberInMol": 20,
          "apClass": {
            "rule": "LPhospholeSubAlpha",
            "subClass": 0,
            "bndTyp": "SINGLE"
          },
          "dirVec": {
            "x": 1.433131987709915,
            "y": -2.382198919642542,
            "z": -2.3644685748284955
          }
        },
        {
          "id": 1027614,
          "atomPositionNumber": 16,
          "atomPositionNumberInMol": 21,
          "apClass": {
            "rule": "LPhospholeSubR",
            "subClass": 0,
            "bndTyp": "SINGLE"
          },
          "dirVec": {
            "x": -1.5463847239590087,
            "y": -0.5771547632366629,
            "z": -2.390802741050389
          }
        },
        {
          "id": 1027615,
          "atomPositionNumber": 16,
          "atomPositionNumberInMol": 21,
          "apClass": {
            "rule": "MPhosphole",
            "subClass": 1,
            "bndTyp": "SINGLE"
          },
          "dirVec": {
            "x": -0.009793254624231097,
            "y": 0.00489325462423156,
            "z": 0.5762815720879806
          }
        }
      ],
      "lstSymAPs": [
        {
          "symIds": [
            0,
            1
          ]
        }
      ],
      "mol": {
        "atoms": [
          {
            "elSymbol": "C",
            "p3d": {
              "x": 0.4856274899334586,
              "y": 1.5762109946729261,
              "z": -2.3981624458202697
            }
          },
          {
            "elSymbol": "C",
            "p3d": {
              "x": 1.611236365338333,
              "y": 1.373370494187636,
              "z": -3.1032865419711895
            }
          },
          {
            "elSymbol": "C",
            "p3d": {
              "x": 2.4357447337692792,
              "y": 2.454179591262286,
              "z": -3.7461023290113147
            }
          },
          {
            "elSymbol": "H",
            "p3d": {
              "x": 3.013329858302042,
              "y": 2.9492383411059415,
              "z": -2.965319966171508
            }
          },
          {
            "elSymbol": "H",
            "p3d": {
              "x": 1.7655347227917784,
              "y": 3.1882174911944157,
              "z": -4.177199710873893
            }
          },
          {
            "elSymbol": "C",
            "p3d": {
              "x": 3.3704725078088114,
              "y": 1.9349274128578793,
              "z": -4.81920613277933
            }
          },
          {
            "elSymbol": "H",
            "p3d": {
              "x": 2.8010380192699245,
              "y": 1.634671134744067,
              "z": -5.695306983546921
            }
          },
          {
            "elSymbol": "H",
            "p3d": {
              "x": 4.063166027586396,
              "y": 2.7363018238259396,
              "z": -5.1175729223249
            }
          },
          {
            "elSymbol": "C",
            "p3d": {
              "x": 4.158814796123447,
              "y": 0.7520137905885036,
              "z": -4.309093303393133
            }
          },
          {
            "elSymbol": "H",
            "p3d": {
              "x": 4.68771796173765,
              "y": 1.0256455622701075,
              "z": -3.4028599532400605
            }
          },
          {
            "elSymbol": "H",
            "p3d": {
              "x": 4.902904515496089,
              "y": 0.4695459391300859,
              "z": -5.061936143842859
            }
          },
          {
            "elSymbol": "C",
            "p3d": {
              "x": 3.2435442631862434,
              "y": -0.4253802058638042,
              "z": -4.056152107351634
            }
          },
          {
            "elSymbol": "H",
            "p3d": {
              "x": 2.8721188104648205,
              "y": -0.8087562236056864,
              "z": -4.996874012109391
            }
          },
          {
            "elSymbol": "H",
            "p3d": {
              "x": 3.7861506052430647,
              "y": -1.2138094024882655,
              "z": -3.5637274842164546
            }
          },
          {
            "elSymbol": "C",
            "p3d": {
              "x": 2.0355845146824265,
              "y": -0.050886930720320245,
              "z": -3.1866848377739334
            }
          },
          {
            "elSymbol": "C",
            "p3d": {
              "x": 1.303944062398438,
              "y": -0.9192241744201626,
              "z": -2.4789488560791755
            }
          },
          {
            "elSymbol": "P",
            "p3d": {
              "x": -0.009506745375768903,
              "y": 0.0046067453757684396,
              "z": -1.658681572087981
            }
          }
        ],
        "bonds": [
          {
            "atomIds": [
              0,
              1
            ],
            "bo": "DOUBLE"
          },
          {
            "atomIds": [
              1,
              2
            ],
            "bo": "SINGLE"
          },
          {
            "atomIds": [
              2,
              3
            ],
            "bo": "SINGLE"
          },
          {
            "atomIds": [
              4,
              2
            ],
            "bo": "SINGLE"
          },
          {
            "atomIds": [
              5,
              2
            ],
            "bo": "SINGLE"
          },
          {
            "atomIds": [
              6,
              5
            ],
            "bo": "SINGLE"
          },
          {
            "atomIds": [
              7,
              5
            ],
            "bo": "SINGLE"
          },
          {
            "atomIds": [
              8,
              5
            ],
            "bo": "SINGLE"
          },
          {
            "atomIds": [
              9,
              8
            ],
            "bo": "SINGLE"
          },
          {
            "atomIds": [
              10,
              8
            ],
            "bo": "SINGLE"
          },
          {
            "atomIds": [
              11,
              8
            ],
            "bo": "SINGLE"
          },
          {
            "atomIds": [
              11,
              14
            ],
            "bo": "SINGLE"
          },
          {
            "atomIds": [
              12,
              11
            ],
            "bo": "SINGLE"
          },
          {
            "atomIds": [
              13,
              11
            ],
            "bo": "SINGLE"
          },
          {
            "atomIds": [
              14,
              1
            ],
            "bo": "SINGLE"
          },
          {
            "atomIds": [
              15,
              14
            ],
            "bo": "DOUBLE"
          },
          {
            "atomIds": [
              15,
              16
            ],
            "bo": "SINGLE"
          },
          {
            "atomIds": [
              16,
              0
            ],
            "bo": "SINGLE"
          }
        ]
      },
      "vertexId": 177017,
      "buildingBlockId": 45,
      "buildingBlockType": "FRAGMENT",
      "isRCV": false,
      "properties": {
        "ATTACHMENT_POINTS": "1#LPhospholeSubAlpha:0:SINGLE:-0.2291%2.8457%-2.1608 16#LPhospholeSubAlpha:0:SINGLE:1.4331%-2.3822%-2.3645 17#LPhospholeSubR:0:SINGLE:-1.5464%-0.5772%-2.3908,MPhosphole:1:SINGLE:-0.0098%0.0049%0.5763 "
      },
      "uniquefyingPropertyKeys": [],
      "allowedMutationTypes": [
        "DELETE",
        "EXTEND",
        "CHANGEBRANCH",
        "CHANGELINK",
        "ADDLINK",
        "DELETELINK",
        "DELETECHAIN"
      ],
      "vertexType": "MolecularFragment"
    },
    {
      "lstAPs": [
        {
          "id": 1027616,
          "atomPositionNumber": 0,
          "atomPositionNumberInMol": 22,
          "apClass": {
            "rule": "ATplus",
            "subClass": 0,
            "bndTyp": "ANY"
          },
          "dirVec": {
            "x": 1.433131987709915,
            "y": -2.382198919642542,
            "z": -2.3644685748284955
          }
        }
      ],
      "lstSymAPs": [],
      "mol": {
        "atoms": [
          {
            "elSymbol": "ATP",
            "p3d": {
              "x": 1.4349729282333077,
              "y": -2.4030464523100608,
              "z": -2.3628372196660403
            }
          }
        ],
        "bonds": []
      },
      "vertexId": 177018,
      "buildingBlockId": 77,
      "buildingBlockType": "FRAGMENT",
      "isRCV": true,
      "properties": {
        "ATTACHMENT_POINTS": "1#ATplus:0:ANY:1.4331%-2.3822%-2.3645 "
      },
      "uniquefyingPropertyKeys": [],
      "allowedMutationTypes": [
        "DELETE",
        "EXTEND",
        "CHANGEBRANCH",
        "CHANGELINK",
        "ADDLINK",
        "DELETELINK",
        "DELETECHAIN"
      ],
      "vertexType": "MolecularFragment"
    },
    {
      "lstAPs": [
        {
          "id": 1027617,
          "atomPositionNumber": 0,
          "atomPositionNumberInMol": 23,
          "apClass": {
            "rule": "ATplus",
            "subClass": 0,
            "bndTyp": "ANY"
          },
          "dirVec": {
            "x": -0.22909378976545047,
            "y": 2.845703088769645,
            "z": -2.160777178013941
          }
        }
      ],
      "lstSymAPs": [],
      "mol": {
        "atoms": [
          {
            "elSymbol": "ATP",
            "p3d": {
              "x": -0.23925828749796996,
              "y": 2.863757328762798,
              "z": -2.1574011738499577
            }
          }
        ],
        "bonds": []
      },
      "vertexId": 177019,
      "buildingBlockId": 77,
      "buildingBlockType": "FRAGMENT",
      "isRCV": true,
      "properties": {
        "ATTACHMENT_POINTS": "1#ATplus:0:ANY:-0.2291%2.8457%-2.1608 "
      },
      "uniquefyingPropertyKeys": [],
      "allowedMutationTypes": [
        "DELETE",
        "EXTEND",
        "CHANGEBRANCH",
        "CHANGELINK",
        "ADDLINK",
        "DELETELINK",
        "DELETECHAIN"
      ],
      "vertexType": "MolecularFragment"
    },
    {
      "lstAPs": [
        {
          "id": 1027618,
          "atomPositionNumber": 0,
          "atomPositionNumberInMol": 34,
          "apClass": {
            "rule": "Xlig",
            "subClass": 1,
            "bndTyp": "SINGLE"
          },
          "dirVec": {
            "x": 2.9612,
            "y": 0.482,
            "z": 3.1597
          }
        },
        {
          "id": 1027619,
          "atomPositionNumber": 2,
          "atomPositionNumberInMol": 36,
          "apClass": {
            "rule": "bridge",
            "subClass": 1,
            "bndTyp": "SINGLE"
          },
          "dirVec": {
            "x": 0.31479999999999997,
            "y": 0.7222,
            "z": 2.0817
          }
        }
      ],
      "lstSymAPs": [],
      "mol": {
        "atoms": [
          {
            "elSymbol": "O",
            "p3d": {
              "x": 2.5349,
              "y": 1.3185,
              "z": 1.3621
            }
          },
          {
            "elSymbol": "O",
            "p3d": {
              "x": 0.8537,
              "y": 1.7439,
              "z": 0.0154
            }
          },
          {
            "elSymbol": "C",
            "p3d": {
              "x": 1.2704,
              "y": 1.2787,
              "z": 1.0674
            }
          }
        ],
        "bonds": [
          {
            "atomIds": [
              1,
              2
            ],
            "bo": "DOUBLE"
          },
          {
            "atomIds": [
              2,
              0
            ],
            "bo": "SINGLE"
          }
        ]
      },
      "vertexId": 177020,
      "buildingBlockId": 75,
      "buildingBlockType": "FRAGMENT",
      "isRCV": false,
      "properties": {
        "ATTACHMENT_POINTS": "1#Xlig:1:SINGLE:2.9612%0.4820%3.1597 3#bridge:1:SINGLE:0.3148%0.7222%2.0817 "
      },
      "uniquefyingPropertyKeys": [],
      "allowedMutationTypes": [
        "DELETE",
        "EXTEND",
        "CHANGEBRANCH",
        "CHANGELINK",
        "ADDLINK",
        "DELETELINK",
        "DELETECHAIN"
      ],
      "vertexType": "MolecularFragment"
    },
    {
      "lstAPs": [
        {
          "id": 1027620,
          "atomPositionNumber": 0,
          "atomPositionNumberInMol": 44,
          "apClass": {
            "rule": "Xlig",
            "subClass": 1,
            "bndTyp": "SINGLE"
          },
          "dirVec": {
            "x": 2.9612,
            "y": 0.482,
            "z": 3.1597
          }
        },
        {
          "id": 1027621,
          "atomPositionNumber": 2,
          "atomPositionNumberInMol": 46,
          "apClass": {
            "rule": "bridge",
            "subClass": 1,
            "bndTyp": "SINGLE"
          },
          "dirVec": {
            "x": 0.31479999999999997,
            "y": 0.7222,
            "z": 2.0817
          }
        }
      ],
      "lstSymAPs": [],
      "mol": {
        "atoms": [
          {
            "elSymbol": "O",
            "p3d": {
              "x": 2.5349,
              "y": 1.3185,
              "z": 1.3621
            }
          },
          {
            "elSymbol": "O",
            "p3d": {
              "x": 0.8537,
              "y": 1.7439,
              "z": 0.0154
            }
          },
          {
            "elSymbol": "C",
            "p3d": {
              "x": 1.2704,
              "y": 1.2787,
              "z": 1.0674
            }
          }
        ],
        "bonds": [
          {
            "atomIds": [
              1,
              2
            ],
            "bo": "DOUBLE"
          },
          {
            "atomIds": [
              2,
              0
            ],
            "bo": "SINGLE"
          }
        ]
      },
      "vertexId": 177021,
      "buildingBlockId": 75,
      "buildingBlockType": "FRAGMENT",
      "isRCV": false,
      "properties": {
        "ATTACHMENT_POINTS": "1#Xlig:1:SINGLE:2.9612%0.4820%3.1597 3#bridge:1:SINGLE:0.3148%0.7222%2.0817 "
      },
      "uniquefyingPropertyKeys": [],
      "allowedMutationTypes": [
        "DELETE",
        "EXTEND",
        "CHANGEBRANCH",
        "CHANGELINK",
        "ADDLINK",
        "DELETELINK",
        "DELETECHAIN"
      ],
      "vertexType": "MolecularFragment"
    },
    {
      "lstAPs": [
        {
          "id": 1027622,
          "atomPositionNumber": 1,
          "atomPositionNumberInMol": 48,
          "apClass": {
            "rule": "bridge",
            "subClass": 0,
            "bndTyp": "SINGLE"
          },
          "dirVec": {
            "x": 0.4112,
            "y": -1.2101,
            "z": -0.19930000000000003
          }
        },
        {
          "id": 1027623,
          "atomPositionNumber": 0,
          "atomPositionNumberInMol": 47,
          "apClass": {
            "rule": "bridge",
            "subClass": 0,
            "bndTyp": "SINGLE"
          },
          "dirVec": {
            "x": 0.41179999999999994,
            "y": 1.21,
            "z": -0.19930000000000003
          }
        }
      ],
      "lstSymAPs": [
        {
          "symIds": [
            0,
            1
          ]
        }
      ],
      "mol": {
        "atoms": [
          {
            "elSymbol": "C",
            "p3d": {
              "x": -1.0414,
              "y": 0.7696,
              "z": 0.0732
            }
          },
          {
            "elSymbol": "C",
            "p3d": {
              "x": -1.0417,
              "y": -0.7693,
              "z": 0.0732
            }
          },
          {
            "elSymbol": "H",
            "p3d": {
              "x": -1.6983,
              "y": 1.1431,
              "z": -0.7123
            }
          },
          {
            "elSymbol": "H",
            "p3d": {
              "x": -1.369,
              "y": 1.143,
              "z": 1.0434
            }
          },
          {
            "elSymbol": "H",
            "p3d": {
              "x": -1.3695,
              "y": -1.1425,
              "z": 1.0434
            }
          },
          {
            "elSymbol": "H",
            "p3d": {
              "x": -1.6988,
              "y": -1.1424,
              "z": -0.7123
            }
          }
        ],
        "bonds": [
          {
            "atomIds": [
              0,
              1
            ],
            "bo": "SINGLE"
          },
          {
            "atomIds": [
              0,
              2
            ],
            "bo": "SINGLE"
          },
          {
            "atomIds": [
              0,
              3
            ],
            "bo": "SINGLE"
          },
          {
            "atomIds": [
              1,
              4
            ],
            "bo": "SINGLE"
          },
          {
            "atomIds": [
              1,
              5
            ],
            "bo": "SINGLE"
          }
        ]
      },
      "vertexId": 177022,
      "buildingBlockId": 65,
      "buildingBlockType": "FRAGMENT",
      "isRCV": false,
      "properties": {
        "ATTACHMENT_POINTS": "1#bridge:0:SINGLE:0.4118%1.2100%-0.1993 2#bridge:0:SINGLE:0.4112%-1.2101%-0.1993 "
      },
      "uniquefyingPropertyKeys": [],
      "allowedMutationTypes": [
        "DELETE",
        "EXTEND",
        "CHANGEBRANCH",
        "CHANGELINK",
        "ADDLINK",
        "DELETELINK",
        "DELETECHAIN"
      ],
      "vertexType": "MolecularFragment"
    },
    {
      "lstAPs": [
        {
          "id": 1027624,
          "atomPositionNumber": 1,
          "atomPositionNumberInMol": 38,
          "apClass": {
            "rule": "bridge",
            "subClass": 0,
            "bndTyp": "SINGLE"
          },
          "dirVec": {
            "x": 0.4112,
            "y": -1.2101,
            "z": -0.19930000000000003
          }
        },
        {
          "id": 1027625,
          "atomPositionNumber": 0,
          "atomPositionNumberInMol": 37,
          "apClass": {
            "rule": "bridge",
            "subClass": 0,
            "bndTyp": "SINGLE"
          },
          "dirVec": {
            "x": 0.41179999999999994,
            "y": 1.21,
            "z": -0.19930000000000003
          }
        }
      ],
      "lstSymAPs": [
        {
          "symIds": [
            0,
            1
          ]
        }
      ],
      "mol": {
        "atoms": [
          {
            "elSymbol": "C",
            "p3d": {
              "x": -1.0414,
              "y": 0.7696,
              "z": 0.0732
            }
          },
          {
            "elSymbol": "C",
            "p3d": {
              "x": -1.0417,
              "y": -0.7693,
              "z": 0.0732
            }
          },
          {
            "elSymbol": "H",
            "p3d": {
              "x": -1.6983,
              "y": 1.1431,
              "z": -0.7123
            }
          },
          {
            "elSymbol": "H",
            "p3d": {
              "x": -1.369,
              "y": 1.143,
              "z": 1.0434
            }
          },
          {
            "elSymbol": "H",
            "p3d": {
              "x": -1.3695,
              "y": -1.1425,
              "z": 1.0434
            }
          },
          {
            "elSymbol": "H",
            "p3d": {
              "x": -1.6988,
              "y": -1.1424,
              "z": -0.7123
            }
          }
        ],
        "bonds": [
          {
            "atomIds": [
              0,
              1
            ],
            "bo": "SINGLE"
          },
          {
            "atomIds": [
              0,
              2
            ],
            "bo": "SINGLE"
          },
          {
            "atomIds": [
              0,
              3
            ],
            "bo": "SINGLE"
          },
          {
            "atomIds": [
              1,
              4
            ],
            "bo": "SINGLE"
          },
          {
            "atomIds": [
              1,
              5
            ],
            "bo": "SINGLE"
          }
        ]
      },
      "vertexId": 177023,
      "buildingBlockId": 65,
      "buildingBlockType": "FRAGMENT",
      "isRCV": false,
      "properties": {
        "ATTACHMENT_POINTS": "1#bridge:0:SINGLE:0.4118%1.2100%-0.1993 2#bridge:0:SINGLE:0.4112%-1.2101%-0.1993 "
      },
      "uniquefyingPropertyKeys": [],
      "allowedMutationTypes": [
        "DELETE",
        "EXTEND",
        "CHANGEBRANCH",
        "CHANGELINK",
        "ADDLINK",
        "DELETELINK",
        "DELETECHAIN"
      ],
      "vertexType": "MolecularFragment"
    },
    {
      "lstAPs": [
        {
          "id": 1027626,
          "atomPositionNumber": 0,
          "atomPositionNumberInMol": 53,
          "apClass": {
            "rule": "ATminus",
            "subClass": 0,
            "bndTyp": "ANY"
          },
          "dirVec": {
            "x": 0.0109,
            "y": -0.0071,
            "z": 0.0026
          }
        }
      ],
      "lstSymAPs": [],
      "mol": {
        "atoms": [
          {
            "elSymbol": "ATM",
            "p3d": {
              "x": -0.0096,
              "y": 0.0045,
              "z": -0.0011
            }
          }
        ],
        "bonds": []
      },
      "vertexId": 177024,
      "buildingBlockId": 78,
      "buildingBlockType": "FRAGMENT",
      "isRCV": true,
      "properties": {
        "ATTACHMENT_POINTS": "1#ATminus:0:ANY:0.0109%-0.0071%0.0026 "
      },
      "uniquefyingPropertyKeys": [],
      "allowedMutationTypes": [
        "DELETE",
        "EXTEND",
        "CHANGEBRANCH",
        "CHANGELINK",
        "ADDLINK",
        "DELETELINK",
        "DELETECHAIN"
      ],
      "vertexType": "MolecularFragment"
    },
    {
      "lstAPs": [
        {
          "id": 1027627,
          "atomPositionNumber": 0,
          "atomPositionNumberInMol": 43,
          "apClass": {
            "rule": "ATminus",
            "subClass": 0,
            "bndTyp": "ANY"
          },
          "dirVec": {
            "x": 0.0109,
            "y": -0.0071,
            "z": 0.0026
          }
        }
      ],
      "lstSymAPs": [],
      "mol": {
        "atoms": [
          {
            "elSymbol": "ATM",
            "p3d": {
              "x": -0.0096,
              "y": 0.0045,
              "z": -0.0011
            }
          }
        ],
        "bonds": []
      },
      "vertexId": 177025,
      "buildingBlockId": 78,
      "buildingBlockType": "FRAGMENT",
      "isRCV": true,
      "properties": {
        "ATTACHMENT_POINTS": "1#ATminus:0:ANY:0.0109%-0.0071%0.0026 "
      },
      "uniquefyingPropertyKeys": [],
      "allowedMutationTypes": [
        "DELETE",
        "EXTEND",
        "CHANGEBRANCH",
        "CHANGELINK",
        "ADDLINK",
        "DELETELINK",
        "DELETECHAIN"
      ],
      "vertexType": "MolecularFragment"
    },
    {
      "lstAPs": [
        {
          "id": 1027688,
          "atomPositionNumber": 1,
          "atomPositionNumberInMol": 25,
          "apClass": {
            "rule": "SubRM",
            "subClass": 1,
            "bndTyp": "SINGLE"
          },
          "dirVec": {
            "x": 0.2868,
            "y": 0.385,
            "z": -0.643
          }
        }
      ],
      "lstSymAPs": [],
      "mol": {
        "atoms": [
          {
            "elSymbol": "C",
            "p3d": {
              "x": 1.141,
              "y": 1.0262,
              "z": 1.6347
            }
          },
          {
            "elSymbol": "C",
            "p3d": {
              "x": 0.3967,
              "y": -0.0479,
              "z": 0.8227
            }
          },
          {
            "elSymbol": "C",
            "p3d": {
              "x": 1.1459,
              "y": -1.371,
              "z": 0.9201
            }
          },
          {
            "elSymbol": "H",
            "p3d": {
              "x": 2.1461,
              "y": -1.2583,
              "z": 0.4976
            }
          },
          {
            "elSymbol": "H",
            "p3d": {
              "x": 0.6013,
              "y": -2.1408,
              "z": 0.3461
            }
          },
          {
            "elSymbol": "H",
            "p3d": {
              "x": 1.2113,
              "y": -1.6946,
              "z": 1.9559
            }
          },
          {
            "elSymbol": "H",
            "p3d": {
              "x": 2.1541,
              "y": 1.1435,
              "z": 1.2119
            }
          },
          {
            "elSymbol": "H",
            "p3d": {
              "x": 0.6143,
              "y": 1.976,
              "z": 1.5626
            }
          },
          {
            "elSymbol": "H",
            "p3d": {
              "x": 1.2058,
              "y": 0.7088,
              "z": 2.6868
            }
          },
          {
            "elSymbol": "H",
            "p3d": {
              "x": -0.6215,
              "y": -0.1789,
              "z": 1.2377
            }
          }
        ],
        "bonds": [
          {
            "atomIds": [
              0,
              1
            ],
            "bo": "SINGLE"
          },
          {
            "atomIds": [
              1,
              2
            ],
            "bo": "SINGLE"
          },
          {
            "atomIds": [
              2,
              3
            ],
            "bo": "SINGLE"
          },
          {
            "atomIds": [
              2,
              4
            ],
            "bo": "SINGLE"
          },
          {
            "atomIds": [
              2,
              5
            ],
            "bo": "SINGLE"
          },
          {
            "atomIds": [
              0,
              6
            ],
            "bo": "SINGLE"
          },
          {
            "atomIds": [
              0,
              7
            ],
            "bo": "SINGLE"
          },
          {
            "atomIds": [
              0,
              8
            ],
            "bo": "SINGLE"
          },
          {
            "atomIds": [
              1,
              9
            ],
            "bo": "SINGLE"
          }
        ]
      },
      "vertexId": 878107,
      "buildingBlockId": 25,
      "buildingBlockType": "FRAGMENT",
      "isRCV": false,
      "properties": {
        "ATTACHMENT_POINTS": "2#SubRM:1:SINGLE:0.2868%0.3850%-0.6430 "
      },
      "uniquefyingPropertyKeys": [],
      "allowedMutationTypes": [
        "DELETE",
        "EXTEND",
        "CHANGEBRANCH",
        "CHANGELINK",
        "ADDLINK",
        "DELETELINK",
        "DELETECHAIN"
      ],
      "vertexType": "MolecularFragment"
    }
  ],
  "gEdges": [
    {
      "srcAPID": 1027611,
      "trgAPID": 1027615,
      "bondType": "SINGLE"
    },
    {
      "srcAPID": 1027613,
      "trgAPID": 1027616,
      "bondType": "SINGLE"
    },
    {
      "srcAPID": 1027612,
      "trgAPID": 1027617,
      "bondType": "SINGLE"
    },
    {
      "srcAPID": 1027609,
      "trgAPID": 1027618,
      "bondType": "SINGLE"
    },
    {
      "srcAPID": 1027610,
      "trgAPID": 1027620,
      "bondType": "SINGLE"
    },
    {
      "srcAPID": 1027621,
      "trgAPID": 1027622,
      "bondType": "SINGLE"
    },
    {
      "srcAPID": 1027619,
      "trgAPID": 1027624,
      "bondType": "SINGLE"
    },
    {
      "srcAPID": 1027623,
      "trgAPID": 1027626,
      "bondType": "SINGLE"
    },
    {
      "srcAPID": 1027625,
      "trgAPID": 1027627,
      "bondType": "SINGLE"
    },
    {
      "srcAPID": 1027614,
      "trgAPID": 1027688,
      "bondType": "SINGLE"
    }
  ],
  "gRings": [
    {
      "vertices": [
        177018,
        177017,
        177016,
        177021,
        177022,
        177024
      ],
      "bndTyp": "SINGLE"
    },
    {
      "vertices": [
        177019,
        177017,
        177016,
        177020,
        177023,
        177025
      ],
      "bndTyp": "SINGLE"
    }
  ],
  "symVertices": [
    {
      "symIds": [
        177018,
        177019
      ]
    },
    {
      "symIds": [
        177020,
        177021
      ]
    },
    {
      "symIds": [
        177022,
        177023
      ]
    },
    {
      "symIds": [
        177024,
        177025
      ]
    }
  ]
}

> <SMILES>
[Pt]12(C#O)[P]3(C(=C4C(C(C(C(C4=C3C(C([H])([H])C(=O)O1)([H])[H])([H])[H])([H])[H])([H])[H])([H])[H])C(C([H])([H])C(=O)O2)([H])[H])C(C([H])([H])[H])(C([H])([H])[H])[H]

$$$$
