M00012210
  CDK     05032208453D

 44 47  0  0  0  0  0  0  0  0999 V2000
   -2.6553    0.0195    1.3705 Pt  0  0  0  0  0  0  0  0  0  0  0  0
   -4.5703   -0.0453    1.6762 C   0  0  0  0  0  0  0  0  0  0  0  0
   -5.7016   -0.0808    1.8343 O   0  0  0  0  0  0  0  0  0  0  0  0
    0.1972   -1.2356   -0.1219 C   0  0  0  0  0  0  0  0  0  0  0  0
    0.8041   -0.6405   -1.1699 C   0  0  0  0  0  0  0  0  0  0  0  0
    1.4150   -1.3998   -2.3057 C   0  0  0  0  0  0  0  0  0  0  0  0
    0.5920   -1.8215   -2.9270 H   0  0  0  0  0  0  0  0  0  0  0  0
    1.9714   -2.2799   -1.9192 H   0  0  0  0  0  0  0  0  0  0  0  0
    2.3401   -0.5514   -3.1849 C   0  0  0  0  0  0  0  0  0  0  0  0
    3.2879   -0.3449   -2.6504 H   0  0  0  0  0  0  0  0  0  0  0  0
    2.6203   -1.1203   -4.0920 H   0  0  0  0  0  0  0  0  0  0  0  0
    1.6578    0.7633   -3.5719 C   0  0  0  0  0  0  0  0  0  0  0  0
    0.7077    0.5555   -4.1032 H   0  0  0  0  0  0  0  0  0  0  0  0
    2.2873    1.3284   -4.2853 H   0  0  0  0  0  0  0  0  0  0  0  0
    1.3854    1.6182   -2.3294 C   0  0  0  0  0  0  0  0  0  0  0  0
    2.3405    2.0522   -1.9572 H   0  0  0  0  0  0  0  0  0  0  0  0
    0.7551    2.4898   -2.6096 H   0  0  0  0  0  0  0  0  0  0  0  0
    0.7466    0.8630   -1.2065 C   0  0  0  0  0  0  0  0  0  0  0  0
    0.0763    1.4561   -0.1970 C   0  0  0  0  0  0  0  0  0  0  0  0
   -0.4205    0.1165    0.9851 P   0  0  0  0  0  0  0  0  0  0  0  0
    1.9283   -0.3206    2.5042 C   0  0  0  0  0  0  0  0  0  0  0  0
    0.5255    0.2526    2.6236 C   0  0  0  0  0  0  0  0  0  0  0  0
   -0.3327   -0.4634    3.6594 C   0  0  0  0  0  0  0  0  0  0  0  0
   -1.3539   -0.0450    3.7414 H   0  0  0  0  0  0  0  0  0  0  0  0
    0.1142   -0.3713    4.6604 H   0  0  0  0  0  0  0  0  0  0  0  0
   -0.4407   -1.5448    3.4751 H   0  0  0  0  0  0  0  0  0  0  0  0
    2.4560   -0.2292    3.4667 H   0  0  0  0  0  0  0  0  0  0  0  0
    1.9405   -1.3916    2.2567 H   0  0  0  0  0  0  0  0  0  0  0  0
    2.5467    0.2014    1.7624 H   0  0  0  0  0  0  0  0  0  0  0  0
    0.5871    1.3441    2.8854 H   0  0  0  0  0  0  0  0  0  0  0  0
   -2.7526    2.3589    1.4928 S   0  0  0  0  0  0  0  0  0  0  0  0
   -1.9425    2.9151   -0.0478 C   0  0  0  0  0  0  0  0  0  0  0  0
   -0.4120    2.8379    0.0220 C   0  0  0  0  0  0  0  0  0  0  0  0
   -2.2648    3.9651   -0.1938 H   0  0  0  0  0  0  0  0  0  0  0  0
   -2.3400    2.3373   -0.9024 H   0  0  0  0  0  0  0  0  0  0  0  0
    0.0160    3.5219   -0.7455 H   0  0  0  0  0  0  0  0  0  0  0  0
   -0.0502    3.2491    0.9923 H   0  0  0  0  0  0  0  0  0  0  0  0
   -2.6680   -2.3249    1.4276 S   0  0  0  0  0  0  0  0  0  0  0  0
   -1.6961   -2.8492   -0.0270 C   0  0  0  0  0  0  0  0  0  0  0  0
   -0.1871   -2.6398    0.1543 C   0  0  0  0  0  0  0  0  0  0  0  0
   -2.0735   -2.3320   -0.9279 H   0  0  0  0  0  0  0  0  0  0  0  0
   -1.9188   -3.9266   -0.1596 H   0  0  0  0  0  0  0  0  0  0  0  0
    0.1255   -2.9585    1.1750 H   0  0  0  0  0  0  0  0  0  0  0  0
    0.3560   -3.3289   -0.5310 H   0  0  0  0  0  0  0  0  0  0  0  0
  2  3  3  0  0  0  0
  1  2  1  0  0  0  0
  4  5  2  0  0  0  0
  5  6  1  0  0  0  0
  6  7  1  0  0  0  0
  8  6  1  0  0  0  0
  9  6  1  0  0  0  0
 10  9  1  0  0  0  0
 11  9  1  0  0  0  0
 12  9  1  0  0  0  0
 13 12  1  0  0  0  0
 14 12  1  0  0  0  0
 15 12  1  0  0  0  0
 15 18  1  0  0  0  0
 16 15  1  0  0  0  0
 17 15  1  0  0  0  0
 18  5  1  0  0  0  0
 19 18  2  0  0  0  0
 19 20  1  0  0  0  0
 20  4  1  0  0  0  0
  1 20  1  0  0  0  0
 21 22  1  0  0  0  0
 22 23  1  0  0  0  0
 23 24  1  0  0  0  0
 23 25  1  0  0  0  0
 23 26  1  0  0  0  0
 21 27  1  0  0  0  0
 21 28  1  0  0  0  0
 21 29  1  0  0  0  0
 22 30  1  0  0  0  0
 20 22  1  0  0  0  0
  1 31  1  0  0  0  0
 32 33  1  0  0  0  0
 32 34  1  0  0  0  0
 32 35  1  0  0  0  0
 33 36  1  0  0  0  0
 33 37  1  0  0  0  0
 31 32  1  0  0  0  0
  1 38  1  0  0  0  0
 39 40  1  0  0  0  0
 39 41  1  0  0  0  0
 39 42  1  0  0  0  0
 40 43  1  0  0  0  0
 40 44  1  0  0  0  0
 38 39  1  0  0  0  0
 19 33  1  0  0  0  0
  4 40  1  0  0  0  0
M  END
> <PM6_ENERGY>
-158.695

> <UID>
DMZSLBMZFRHBLI-ZOPSIDJCNA-L

> <FITNESS>
1.14285

> <GCODE>
23290

> <GraphENC>
23290 174086_1_0,174087_46_1,174088_78_1,174089_78_1,174090_74_1,174091_74_1,174092_66_1,174093_66_1,174094_79_1,174095_79_1,828322_26_1, 174086_2_174087_3_SINGLE_scaff:0_MPhosphole:1,174087_1_174088_0_SINGLE_LPhospholeSubAlpha:0_ATplus:0,174087_0_174089_0_SINGLE_LPhospholeSubAlpha:0_ATplus:0,174086_0_174090_0_SINGLE_Xlig:0_Xlig:1,174086_1_174091_0_SINGLE_Xlig:0_Xlig:1,174091_1_174092_1_SINGLE_bridge:1_bridge:0,174090_1_174093_1_SINGLE_bridge:1_bridge:0,174092_0_174094_0_SINGLE_bridge:0_ATminus:0,174093_0_174095_0_SINGLE_bridge:0_ATminus:0,174087_2_828322_0_SINGLE_LPhospholeSubR:0_SubRM:1, DENOPTIMRing [vertices=[174088_78_1, 174087_46_1, 174086_1_0, 174090_74_1, 174093_66_1, 174095_79_1]] DENOPTIMRing [vertices=[174089_78_1, 174087_46_1, 174086_1_0, 174091_74_1, 174092_66_1, 174094_79_1]] SymmetricSet [symIds=[174088, 174089]] SymmetricSet [symIds=[174090, 174091]] SymmetricSet [symIds=[174092, 174093]] SymmetricSet [symIds=[174094, 174095]] 

> <GraphJson>
{
  "graphId": 23290,
  "gVertices": [
    {
      "lstAPs": [
        {
          "id": 947081,
          "atomPositionNumber": 0,
          "atomPositionNumberInMol": 0,
          "apClass": {
            "rule": "Xlig",
            "subClass": 0,
            "bndTyp": "SINGLE"
          },
          "dirVec": {
            "x": -2.3339,
            "y": -0.0087,
            "z": 0.8172
          }
        },
        {
          "id": 947082,
          "atomPositionNumber": 0,
          "atomPositionNumberInMol": 0,
          "apClass": {
            "rule": "Xlig",
            "subClass": 0,
            "bndTyp": "SINGLE"
          },
          "dirVec": {
            "x": 2.336,
            "y": -5.0E-4,
            "z": 0.829
          }
        },
        {
          "id": 947083,
          "atomPositionNumber": 0,
          "atomPositionNumberInMol": 0,
          "apClass": {
            "rule": "scaff",
            "subClass": 0,
            "bndTyp": "SINGLE"
          },
          "dirVec": {
            "x": -0.0095,
            "y": 0.0046,
            "z": -1.7113
          }
        }
      ],
      "lstSymAPs": [
        {
          "symIds": [
            0,
            1
          ]
        }
      ],
      "mol": {
        "atoms": [
          {
            "elSymbol": "Pt",
            "p3d": {
              "x": -0.0098,
              "y": 0.0049,
              "z": 0.6289
            }
          },
          {
            "elSymbol": "C",
            "p3d": {
              "x": -6.0E-4,
              "y": 0.0016,
              "z": 2.5609
            }
          },
          {
            "elSymbol": "O",
            "p3d": {
              "x": 0.0025,
              "y": -0.0041,
              "z": 3.6974
            }
          },
          {
            "elSymbol": "Du",
            "p3d": {
              "x": -0.007,
              "y": 1.0013,
              "z": 0.6372
            }
          },
          {
            "elSymbol": "Du",
            "p3d": {
              "x": -0.0014,
              "y": 0.9902,
              "z": 2.5698
            }
          }
        ],
        "bonds": [
          {
            "atomIds": [
              1,
              2
            ],
            "bo": "TRIPLE"
          },
          {
            "atomIds": [
              0,
              1
            ],
            "bo": "SINGLE"
          },
          {
            "atomIds": [
              3,
              0
            ],
            "bo": "SINGLE"
          },
          {
            "atomIds": [
              4,
              1
            ],
            "bo": "SINGLE"
          }
        ]
      },
      "vertexId": 174086,
      "buildingBlockId": 0,
      "buildingBlockType": "SCAFFOLD",
      "isRCV": false,
      "properties": {
        "ATTACHMENT_POINTS": "1#Xlig:0:SINGLE:-2.3339%-0.0087%0.8172,Xlig:0:SINGLE:2.3360%-0.0005%0.8290,scaff:0:SINGLE:-0.0095%0.0046%-1.7113 "
      },
      "uniquefyingPropertyKeys": [],
      "allowedMutationTypes": [
        "DELETE",
        "EXTEND",
        "CHANGEBRANCH",
        "CHANGELINK",
        "ADDLINK",
        "DELETELINK",
        "DELETECHAIN"
      ],
      "vertexType": "MolecularFragment"
    },
    {
      "lstAPs": [
        {
          "id": 947084,
          "atomPositionNumber": 0,
          "atomPositionNumberInMol": 5,
          "apClass": {
            "rule": "LPhospholeSubAlpha",
            "subClass": 0,
            "bndTyp": "SINGLE"
          },
          "dirVec": {
            "x": -0.2290937897654505,
            "y": 2.845703088769645,
            "z": -2.160777178013941
          }
        },
        {
          "id": 947085,
          "atomPositionNumber": 15,
          "atomPositionNumberInMol": 20,
          "apClass": {
            "rule": "LPhospholeSubAlpha",
            "subClass": 0,
            "bndTyp": "SINGLE"
          },
          "dirVec": {
            "x": 1.433131987709915,
            "y": -2.382198919642542,
            "z": -2.3644685748284955
          }
        },
        {
          "id": 947086,
          "atomPositionNumber": 16,
          "atomPositionNumberInMol": 21,
          "apClass": {
            "rule": "LPhospholeSubR",
            "subClass": 0,
            "bndTyp": "SINGLE"
          },
          "dirVec": {
            "x": -1.5463847239590087,
            "y": -0.5771547632366629,
            "z": -2.390802741050389
          }
        },
        {
          "id": 947087,
          "atomPositionNumber": 16,
          "atomPositionNumberInMol": 21,
          "apClass": {
            "rule": "MPhosphole",
            "subClass": 1,
            "bndTyp": "SINGLE"
          },
          "dirVec": {
            "x": -0.009793254624231097,
            "y": 0.00489325462423156,
            "z": 0.5762815720879806
          }
        }
      ],
      "lstSymAPs": [
        {
          "symIds": [
            0,
            1
          ]
        }
      ],
      "mol": {
        "atoms": [
          {
            "elSymbol": "C",
            "p3d": {
              "x": 0.4856274899334586,
              "y": 1.5762109946729261,
              "z": -2.3981624458202697
            }
          },
          {
            "elSymbol": "C",
            "p3d": {
              "x": 1.611236365338333,
              "y": 1.373370494187636,
              "z": -3.1032865419711895
            }
          },
          {
            "elSymbol": "C",
            "p3d": {
              "x": 2.4357447337692792,
              "y": 2.454179591262286,
              "z": -3.7461023290113147
            }
          },
          {
            "elSymbol": "H",
            "p3d": {
              "x": 3.013329858302042,
              "y": 2.9492383411059415,
              "z": -2.965319966171508
            }
          },
          {
            "elSymbol": "H",
            "p3d": {
              "x": 1.7655347227917784,
              "y": 3.1882174911944157,
              "z": -4.177199710873893
            }
          },
          {
            "elSymbol": "C",
            "p3d": {
              "x": 3.3704725078088114,
              "y": 1.9349274128578793,
              "z": -4.81920613277933
            }
          },
          {
            "elSymbol": "H",
            "p3d": {
              "x": 2.8010380192699245,
              "y": 1.634671134744067,
              "z": -5.695306983546921
            }
          },
          {
            "elSymbol": "H",
            "p3d": {
              "x": 4.063166027586396,
              "y": 2.7363018238259396,
              "z": -5.1175729223249
            }
          },
          {
            "elSymbol": "C",
            "p3d": {
              "x": 4.158814796123447,
              "y": 0.7520137905885036,
              "z": -4.309093303393133
            }
          },
          {
            "elSymbol": "H",
            "p3d": {
              "x": 4.68771796173765,
              "y": 1.0256455622701075,
              "z": -3.4028599532400605
            }
          },
          {
            "elSymbol": "H",
            "p3d": {
              "x": 4.902904515496089,
              "y": 0.4695459391300859,
              "z": -5.061936143842859
            }
          },
          {
            "elSymbol": "C",
            "p3d": {
              "x": 3.2435442631862434,
              "y": -0.4253802058638042,
              "z": -4.056152107351634
            }
          },
          {
            "elSymbol": "H",
            "p3d": {
              "x": 2.8721188104648205,
              "y": -0.8087562236056864,
              "z": -4.996874012109391
            }
          },
          {
            "elSymbol": "H",
            "p3d": {
              "x": 3.7861506052430647,
              "y": -1.2138094024882655,
              "z": -3.5637274842164546
            }
          },
          {
            "elSymbol": "C",
            "p3d": {
              "x": 2.0355845146824265,
              "y": -0.050886930720320245,
              "z": -3.1866848377739334
            }
          },
          {
            "elSymbol": "C",
            "p3d": {
              "x": 1.303944062398438,
              "y": -0.9192241744201626,
              "z": -2.4789488560791755
            }
          },
          {
            "elSymbol": "P",
            "p3d": {
              "x": -0.009506745375768903,
              "y": 0.0046067453757684396,
              "z": -1.658681572087981
            }
          }
        ],
        "bonds": [
          {
            "atomIds": [
              0,
              1
            ],
            "bo": "DOUBLE"
          },
          {
            "atomIds": [
              1,
              2
            ],
            "bo": "SINGLE"
          },
          {
            "atomIds": [
              2,
              3
            ],
            "bo": "SINGLE"
          },
          {
            "atomIds": [
              4,
              2
            ],
            "bo": "SINGLE"
          },
          {
            "atomIds": [
              5,
              2
            ],
            "bo": "SINGLE"
          },
          {
            "atomIds": [
              6,
              5
            ],
            "bo": "SINGLE"
          },
          {
            "atomIds": [
              7,
              5
            ],
            "bo": "SINGLE"
          },
          {
            "atomIds": [
              8,
              5
            ],
            "bo": "SINGLE"
          },
          {
            "atomIds": [
              9,
              8
            ],
            "bo": "SINGLE"
          },
          {
            "atomIds": [
              10,
              8
            ],
            "bo": "SINGLE"
          },
          {
            "atomIds": [
              11,
              8
            ],
            "bo": "SINGLE"
          },
          {
            "atomIds": [
              11,
              14
            ],
            "bo": "SINGLE"
          },
          {
            "atomIds": [
              12,
              11
            ],
            "bo": "SINGLE"
          },
          {
            "atomIds": [
              13,
              11
            ],
            "bo": "SINGLE"
          },
          {
            "atomIds": [
              14,
              1
            ],
            "bo": "SINGLE"
          },
          {
            "atomIds": [
              15,
              14
            ],
            "bo": "DOUBLE"
          },
          {
            "atomIds": [
              15,
              16
            ],
            "bo": "SINGLE"
          },
          {
            "atomIds": [
              16,
              0
            ],
            "bo": "SINGLE"
          }
        ]
      },
      "vertexId": 174087,
      "buildingBlockId": 45,
      "buildingBlockType": "FRAGMENT",
      "isRCV": false,
      "properties": {
        "ATTACHMENT_POINTS": "1#LPhospholeSubAlpha:0:SINGLE:-0.2291%2.8457%-2.1608 16#LPhospholeSubAlpha:0:SINGLE:1.4331%-2.3822%-2.3645 17#LPhospholeSubR:0:SINGLE:-1.5464%-0.5772%-2.3908,MPhosphole:1:SINGLE:-0.0098%0.0049%0.5763 "
      },
      "uniquefyingPropertyKeys": [],
      "allowedMutationTypes": [
        "DELETE",
        "EXTEND",
        "CHANGEBRANCH",
        "CHANGELINK",
        "ADDLINK",
        "DELETELINK",
        "DELETECHAIN"
      ],
      "vertexType": "MolecularFragment"
    },
    {
      "lstAPs": [
        {
          "id": 947088,
          "atomPositionNumber": 0,
          "atomPositionNumberInMol": 22,
          "apClass": {
            "rule": "ATplus",
            "subClass": 0,
            "bndTyp": "ANY"
          },
          "dirVec": {
            "x": 1.433131987709915,
            "y": -2.382198919642542,
            "z": -2.3644685748284955
          }
        }
      ],
      "lstSymAPs": [],
      "mol": {
        "atoms": [
          {
            "elSymbol": "ATP",
            "p3d": {
              "x": 1.4349729282333077,
              "y": -2.4030464523100608,
              "z": -2.3628372196660403
            }
          }
        ],
        "bonds": []
      },
      "vertexId": 174088,
      "buildingBlockId": 77,
      "buildingBlockType": "FRAGMENT",
      "isRCV": true,
      "properties": {
        "ATTACHMENT_POINTS": "1#ATplus:0:ANY:1.4331%-2.3822%-2.3645 "
      },
      "uniquefyingPropertyKeys": [],
      "allowedMutationTypes": [
        "DELETE",
        "EXTEND",
        "CHANGEBRANCH",
        "CHANGELINK",
        "ADDLINK",
        "DELETELINK",
        "DELETECHAIN"
      ],
      "vertexType": "MolecularFragment"
    },
    {
      "lstAPs": [
        {
          "id": 947089,
          "atomPositionNumber": 0,
          "atomPositionNumberInMol": 23,
          "apClass": {
            "rule": "ATplus",
            "subClass": 0,
            "bndTyp": "ANY"
          },
          "dirVec": {
            "x": -0.22909378976545047,
            "y": 2.845703088769645,
            "z": -2.160777178013941
          }
        }
      ],
      "lstSymAPs": [],
      "mol": {
        "atoms": [
          {
            "elSymbol": "ATP",
            "p3d": {
              "x": -0.23925828749796996,
              "y": 2.863757328762798,
              "z": -2.1574011738499577
            }
          }
        ],
        "bonds": []
      },
      "vertexId": 174089,
      "buildingBlockId": 77,
      "buildingBlockType": "FRAGMENT",
      "isRCV": true,
      "properties": {
        "ATTACHMENT_POINTS": "1#ATplus:0:ANY:-0.2291%2.8457%-2.1608 "
      },
      "uniquefyingPropertyKeys": [],
      "allowedMutationTypes": [
        "DELETE",
        "EXTEND",
        "CHANGEBRANCH",
        "CHANGELINK",
        "ADDLINK",
        "DELETELINK",
        "DELETECHAIN"
      ],
      "vertexType": "MolecularFragment"
    },
    {
      "lstAPs": [
        {
          "id": 947090,
          "atomPositionNumber": 0,
          "atomPositionNumberInMol": 34,
          "apClass": {
            "rule": "Xlig",
            "subClass": 1,
            "bndTyp": "SINGLE"
          },
          "dirVec": {
            "x": -0.102,
            "y": 0.0185,
            "z": -1.0265
          }
        },
        {
          "id": 947091,
          "atomPositionNumber": 0,
          "atomPositionNumberInMol": 34,
          "apClass": {
            "rule": "bridge",
            "subClass": 1,
            "bndTyp": "SINGLE"
          },
          "dirVec": {
            "x": -0.626,
            "y": 2.4866,
            "z": 0.7805
          }
        }
      ],
      "lstSymAPs": [],
      "mol": {
        "atoms": [
          {
            "elSymbol": "S",
            "p3d": {
              "x": -0.3267,
              "y": 2.3403,
              "z": -1.0022
            }
          }
        ],
        "bonds": []
      },
      "vertexId": 174090,
      "buildingBlockId": 73,
      "buildingBlockType": "FRAGMENT",
      "isRCV": false,
      "properties": {
        "ATTACHMENT_POINTS": "1#Xlig:1:SINGLE:-0.1020%0.0185%-1.0265,bridge:1:SINGLE:-0.6260%2.4866%0.7805 "
      },
      "uniquefyingPropertyKeys": [],
      "allowedMutationTypes": [
        "DELETE",
        "EXTEND",
        "CHANGEBRANCH",
        "CHANGELINK",
        "ADDLINK",
        "DELETELINK",
        "DELETECHAIN"
      ],
      "vertexType": "MolecularFragment"
    },
    {
      "lstAPs": [
        {
          "id": 947092,
          "atomPositionNumber": 0,
          "atomPositionNumberInMol": 42,
          "apClass": {
            "rule": "Xlig",
            "subClass": 1,
            "bndTyp": "SINGLE"
          },
          "dirVec": {
            "x": -0.102,
            "y": 0.0185,
            "z": -1.0265
          }
        },
        {
          "id": 947093,
          "atomPositionNumber": 0,
          "atomPositionNumberInMol": 42,
          "apClass": {
            "rule": "bridge",
            "subClass": 1,
            "bndTyp": "SINGLE"
          },
          "dirVec": {
            "x": -0.626,
            "y": 2.4866,
            "z": 0.7805
          }
        }
      ],
      "lstSymAPs": [],
      "mol": {
        "atoms": [
          {
            "elSymbol": "S",
            "p3d": {
              "x": -0.3267,
              "y": 2.3403,
              "z": -1.0022
            }
          }
        ],
        "bonds": []
      },
      "vertexId": 174091,
      "buildingBlockId": 73,
      "buildingBlockType": "FRAGMENT",
      "isRCV": false,
      "properties": {
        "ATTACHMENT_POINTS": "1#Xlig:1:SINGLE:-0.1020%0.0185%-1.0265,bridge:1:SINGLE:-0.6260%2.4866%0.7805 "
      },
      "uniquefyingPropertyKeys": [],
      "allowedMutationTypes": [
        "DELETE",
        "EXTEND",
        "CHANGEBRANCH",
        "CHANGELINK",
        "ADDLINK",
        "DELETELINK",
        "DELETECHAIN"
      ],
      "vertexType": "MolecularFragment"
    },
    {
      "lstAPs": [
        {
          "id": 947094,
          "atomPositionNumber": 1,
          "atomPositionNumberInMol": 44,
          "apClass": {
            "rule": "bridge",
            "subClass": 0,
            "bndTyp": "SINGLE"
          },
          "dirVec": {
            "x": 0.4112,
            "y": -1.2101,
            "z": -0.19930000000000003
          }
        },
        {
          "id": 947095,
          "atomPositionNumber": 0,
          "atomPositionNumberInMol": 43,
          "apClass": {
            "rule": "bridge",
            "subClass": 0,
            "bndTyp": "SINGLE"
          },
          "dirVec": {
            "x": 0.41179999999999994,
            "y": 1.21,
            "z": -0.19930000000000003
          }
        }
      ],
      "lstSymAPs": [
        {
          "symIds": [
            0,
            1
          ]
        }
      ],
      "mol": {
        "atoms": [
          {
            "elSymbol": "C",
            "p3d": {
              "x": -1.0414,
              "y": 0.7696,
              "z": 0.0732
            }
          },
          {
            "elSymbol": "C",
            "p3d": {
              "x": -1.0417,
              "y": -0.7693,
              "z": 0.0732
            }
          },
          {
            "elSymbol": "H",
            "p3d": {
              "x": -1.6983,
              "y": 1.1431,
              "z": -0.7123
            }
          },
          {
            "elSymbol": "H",
            "p3d": {
              "x": -1.369,
              "y": 1.143,
              "z": 1.0434
            }
          },
          {
            "elSymbol": "H",
            "p3d": {
              "x": -1.3695,
              "y": -1.1425,
              "z": 1.0434
            }
          },
          {
            "elSymbol": "H",
            "p3d": {
              "x": -1.6988,
              "y": -1.1424,
              "z": -0.7123
            }
          }
        ],
        "bonds": [
          {
            "atomIds": [
              0,
              1
            ],
            "bo": "SINGLE"
          },
          {
            "atomIds": [
              0,
              2
            ],
            "bo": "SINGLE"
          },
          {
            "atomIds": [
              0,
              3
            ],
            "bo": "SINGLE"
          },
          {
            "atomIds": [
              1,
              4
            ],
            "bo": "SINGLE"
          },
          {
            "atomIds": [
              1,
              5
            ],
            "bo": "SINGLE"
          }
        ]
      },
      "vertexId": 174092,
      "buildingBlockId": 65,
      "buildingBlockType": "FRAGMENT",
      "isRCV": false,
      "properties": {
        "ATTACHMENT_POINTS": "1#bridge:0:SINGLE:0.4118%1.2100%-0.1993 2#bridge:0:SINGLE:0.4112%-1.2101%-0.1993 "
      },
      "uniquefyingPropertyKeys": [],
      "allowedMutationTypes": [
        "DELETE",
        "EXTEND",
        "CHANGEBRANCH",
        "CHANGELINK",
        "ADDLINK",
        "DELETELINK",
        "DELETECHAIN"
      ],
      "vertexType": "MolecularFragment"
    },
    {
      "lstAPs": [
        {
          "id": 947096,
          "atomPositionNumber": 1,
          "atomPositionNumberInMol": 36,
          "apClass": {
            "rule": "bridge",
            "subClass": 0,
            "bndTyp": "SINGLE"
          },
          "dirVec": {
            "x": 0.4112,
            "y": -1.2101,
            "z": -0.19930000000000003
          }
        },
        {
          "id": 947097,
          "atomPositionNumber": 0,
          "atomPositionNumberInMol": 35,
          "apClass": {
            "rule": "bridge",
            "subClass": 0,
            "bndTyp": "SINGLE"
          },
          "dirVec": {
            "x": 0.41179999999999994,
            "y": 1.21,
            "z": -0.19930000000000003
          }
        }
      ],
      "lstSymAPs": [
        {
          "symIds": [
            0,
            1
          ]
        }
      ],
      "mol": {
        "atoms": [
          {
            "elSymbol": "C",
            "p3d": {
              "x": -1.0414,
              "y": 0.7696,
              "z": 0.0732
            }
          },
          {
            "elSymbol": "C",
            "p3d": {
              "x": -1.0417,
              "y": -0.7693,
              "z": 0.0732
            }
          },
          {
            "elSymbol": "H",
            "p3d": {
              "x": -1.6983,
              "y": 1.1431,
              "z": -0.7123
            }
          },
          {
            "elSymbol": "H",
            "p3d": {
              "x": -1.369,
              "y": 1.143,
              "z": 1.0434
            }
          },
          {
            "elSymbol": "H",
            "p3d": {
              "x": -1.3695,
              "y": -1.1425,
              "z": 1.0434
            }
          },
          {
            "elSymbol": "H",
            "p3d": {
              "x": -1.6988,
              "y": -1.1424,
              "z": -0.7123
            }
          }
        ],
        "bonds": [
          {
            "atomIds": [
              0,
              1
            ],
            "bo": "SINGLE"
          },
          {
            "atomIds": [
              0,
              2
            ],
            "bo": "SINGLE"
          },
          {
            "atomIds": [
              0,
              3
            ],
            "bo": "SINGLE"
          },
          {
            "atomIds": [
              1,
              4
            ],
            "bo": "SINGLE"
          },
          {
            "atomIds": [
              1,
              5
            ],
            "bo": "SINGLE"
          }
        ]
      },
      "vertexId": 174093,
      "buildingBlockId": 65,
      "buildingBlockType": "FRAGMENT",
      "isRCV": false,
      "properties": {
        "ATTACHMENT_POINTS": "1#bridge:0:SINGLE:0.4118%1.2100%-0.1993 2#bridge:0:SINGLE:0.4112%-1.2101%-0.1993 "
      },
      "uniquefyingPropertyKeys": [],
      "allowedMutationTypes": [
        "DELETE",
        "EXTEND",
        "CHANGEBRANCH",
        "CHANGELINK",
        "ADDLINK",
        "DELETELINK",
        "DELETECHAIN"
      ],
      "vertexType": "MolecularFragment"
    },
    {
      "lstAPs": [
        {
          "id": 947098,
          "atomPositionNumber": 0,
          "atomPositionNumberInMol": 49,
          "apClass": {
            "rule": "ATminus",
            "subClass": 0,
            "bndTyp": "ANY"
          },
          "dirVec": {
            "x": 0.0109,
            "y": -0.0071,
            "z": 0.0026
          }
        }
      ],
      "lstSymAPs": [],
      "mol": {
        "atoms": [
          {
            "elSymbol": "ATM",
            "p3d": {
              "x": -0.0096,
              "y": 0.0045,
              "z": -0.0011
            }
          }
        ],
        "bonds": []
      },
      "vertexId": 174094,
      "buildingBlockId": 78,
      "buildingBlockType": "FRAGMENT",
      "isRCV": true,
      "properties": {
        "ATTACHMENT_POINTS": "1#ATminus:0:ANY:0.0109%-0.0071%0.0026 "
      },
      "uniquefyingPropertyKeys": [],
      "allowedMutationTypes": [
        "DELETE",
        "EXTEND",
        "CHANGEBRANCH",
        "CHANGELINK",
        "ADDLINK",
        "DELETELINK",
        "DELETECHAIN"
      ],
      "vertexType": "MolecularFragment"
    },
    {
      "lstAPs": [
        {
          "id": 947099,
          "atomPositionNumber": 0,
          "atomPositionNumberInMol": 41,
          "apClass": {
            "rule": "ATminus",
            "subClass": 0,
            "bndTyp": "ANY"
          },
          "dirVec": {
            "x": 0.0109,
            "y": -0.0071,
            "z": 0.0026
          }
        }
      ],
      "lstSymAPs": [],
      "mol": {
        "atoms": [
          {
            "elSymbol": "ATM",
            "p3d": {
              "x": -0.0096,
              "y": 0.0045,
              "z": -0.0011
            }
          }
        ],
        "bonds": []
      },
      "vertexId": 174095,
      "buildingBlockId": 78,
      "buildingBlockType": "FRAGMENT",
      "isRCV": true,
      "properties": {
        "ATTACHMENT_POINTS": "1#ATminus:0:ANY:0.0109%-0.0071%0.0026 "
      },
      "uniquefyingPropertyKeys": [],
      "allowedMutationTypes": [
        "DELETE",
        "EXTEND",
        "CHANGEBRANCH",
        "CHANGELINK",
        "ADDLINK",
        "DELETELINK",
        "DELETECHAIN"
      ],
      "vertexType": "MolecularFragment"
    },
    {
      "lstAPs": [
        {
          "id": 947160,
          "atomPositionNumber": 1,
          "atomPositionNumberInMol": 25,
          "apClass": {
            "rule": "SubRM",
            "subClass": 1,
            "bndTyp": "SINGLE"
          },
          "dirVec": {
            "x": 0.2868,
            "y": 0.385,
            "z": -0.643
          }
        }
      ],
      "lstSymAPs": [],
      "mol": {
        "atoms": [
          {
            "elSymbol": "C",
            "p3d": {
              "x": 1.141,
              "y": 1.0262,
              "z": 1.6347
            }
          },
          {
            "elSymbol": "C",
            "p3d": {
              "x": 0.3967,
              "y": -0.0479,
              "z": 0.8227
            }
          },
          {
            "elSymbol": "C",
            "p3d": {
              "x": 1.1459,
              "y": -1.371,
              "z": 0.9201
            }
          },
          {
            "elSymbol": "H",
            "p3d": {
              "x": 2.1461,
              "y": -1.2583,
              "z": 0.4976
            }
          },
          {
            "elSymbol": "H",
            "p3d": {
              "x": 0.6013,
              "y": -2.1408,
              "z": 0.3461
            }
          },
          {
            "elSymbol": "H",
            "p3d": {
              "x": 1.2113,
              "y": -1.6946,
              "z": 1.9559
            }
          },
          {
            "elSymbol": "H",
            "p3d": {
              "x": 2.1541,
              "y": 1.1435,
              "z": 1.2119
            }
          },
          {
            "elSymbol": "H",
            "p3d": {
              "x": 0.6143,
              "y": 1.976,
              "z": 1.5626
            }
          },
          {
            "elSymbol": "H",
            "p3d": {
              "x": 1.2058,
              "y": 0.7088,
              "z": 2.6868
            }
          },
          {
            "elSymbol": "H",
            "p3d": {
              "x": -0.6215,
              "y": -0.1789,
              "z": 1.2377
            }
          }
        ],
        "bonds": [
          {
            "atomIds": [
              0,
              1
            ],
            "bo": "SINGLE"
          },
          {
            "atomIds": [
              1,
              2
            ],
            "bo": "SINGLE"
          },
          {
            "atomIds": [
              2,
              3
            ],
            "bo": "SINGLE"
          },
          {
            "atomIds": [
              2,
              4
            ],
            "bo": "SINGLE"
          },
          {
            "atomIds": [
              2,
              5
            ],
            "bo": "SINGLE"
          },
          {
            "atomIds": [
              0,
              6
            ],
            "bo": "SINGLE"
          },
          {
            "atomIds": [
              0,
              7
            ],
            "bo": "SINGLE"
          },
          {
            "atomIds": [
              0,
              8
            ],
            "bo": "SINGLE"
          },
          {
            "atomIds": [
              1,
              9
            ],
            "bo": "SINGLE"
          }
        ]
      },
      "vertexId": 828322,
      "buildingBlockId": 25,
      "buildingBlockType": "FRAGMENT",
      "isRCV": false,
      "properties": {
        "ATTACHMENT_POINTS": "2#SubRM:1:SINGLE:0.2868%0.3850%-0.6430 "
      },
      "uniquefyingPropertyKeys": [],
      "allowedMutationTypes": [
        "DELETE",
        "EXTEND",
        "CHANGEBRANCH",
        "CHANGELINK",
        "ADDLINK",
        "DELETELINK",
        "DELETECHAIN"
      ],
      "vertexType": "MolecularFragment"
    }
  ],
  "gEdges": [
    {
      "srcAPID": 947083,
      "trgAPID": 947087,
      "bondType": "SINGLE"
    },
    {
      "srcAPID": 947085,
      "trgAPID": 947088,
      "bondType": "SINGLE"
    },
    {
      "srcAPID": 947084,
      "trgAPID": 947089,
      "bondType": "SINGLE"
    },
    {
      "srcAPID": 947081,
      "trgAPID": 947090,
      "bondType": "SINGLE"
    },
    {
      "srcAPID": 947082,
      "trgAPID": 947092,
      "bondType": "SINGLE"
    },
    {
      "srcAPID": 947093,
      "trgAPID": 947095,
      "bondType": "SINGLE"
    },
    {
      "srcAPID": 947091,
      "trgAPID": 947097,
      "bondType": "SINGLE"
    },
    {
      "srcAPID": 947094,
      "trgAPID": 947098,
      "bondType": "SINGLE"
    },
    {
      "srcAPID": 947096,
      "trgAPID": 947099,
      "bondType": "SINGLE"
    },
    {
      "srcAPID": 947086,
      "trgAPID": 947160,
      "bondType": "SINGLE"
    }
  ],
  "gRings": [
    {
      "vertices": [
        174088,
        174087,
        174086,
        174090,
        174093,
        174095
      ],
      "bndTyp": "SINGLE"
    },
    {
      "vertices": [
        174089,
        174087,
        174086,
        174091,
        174092,
        174094
      ],
      "bndTyp": "SINGLE"
    }
  ],
  "symVertices": [
    {
      "symIds": [
        174088,
        174089
      ]
    },
    {
      "symIds": [
        174090,
        174091
      ]
    },
    {
      "symIds": [
        174092,
        174093
      ]
    },
    {
      "symIds": [
        174094,
        174095
      ]
    }
  ]
}

> <SMILES>
[Pt]12(C#O)[P]3(C(=C4C(C(C(C(C4=C3C(C([H])([H])S1)([H])[H])([H])[H])([H])[H])([H])[H])([H])[H])C(C([H])([H])S2)([H])[H])C(C([H])([H])[H])(C([H])([H])[H])[H]

$$$$
