M00016404
  CDK     05032209063D

 52 57  0  0  0  0  0  0  0  0999 V2000
   -2.1562    0.1659    0.8004 Pt  0  0  0  0  0  0  0  0  0  0  0  0
   -4.0715    0.2920    1.0879 C   0  0  0  0  0  0  0  0  0  0  0  0
   -5.1969    0.3819    1.2602 O   0  0  0  0  0  0  0  0  0  0  0  0
    0.1068    0.0685    0.5261 P   0  0  0  0  0  0  0  0  0  0  0  0
    0.8296   -1.4836   -0.2334 C   0  0  0  0  0  0  0  0  0  0  0  0
    1.5697   -1.0610   -1.2687 C   0  0  0  0  0  0  0  0  0  0  0  0
    2.3923   -1.7787   -2.2876 C   0  0  0  0  0  0  0  0  0  0  0  0
    1.7671   -2.4809   -2.8740 H   0  0  0  0  0  0  0  0  0  0  0  0
    3.1783   -2.3941   -1.8112 H   0  0  0  0  0  0  0  0  0  0  0  0
    3.0040   -0.6835   -3.1961 C   0  0  0  0  0  0  0  0  0  0  0  0
    2.7700   -0.8815   -4.2558 H   0  0  0  0  0  0  0  0  0  0  0  0
    4.1043   -0.6838   -3.1146 H   0  0  0  0  0  0  0  0  0  0  0  0
    2.4275    0.6845   -2.7556 C   0  0  0  0  0  0  0  0  0  0  0  0
    3.2312    1.4126   -2.5391 H   0  0  0  0  0  0  0  0  0  0  0  0
    1.8118    1.1369   -3.5591 H   0  0  0  0  0  0  0  0  0  0  0  0
    1.5935    0.4140   -1.5472 C   0  0  0  0  0  0  0  0  0  0  0  0
    0.8780    1.2083   -0.7373 C   0  0  0  0  0  0  0  0  0  0  0  0
   -0.2035    0.8537    3.1591 C   0  0  0  0  0  0  0  0  0  0  0  0
    0.8857    0.3683    2.2171 C   0  0  0  0  0  0  0  0  0  0  0  0
   -1.0458    0.1433    3.2561 H   0  0  0  0  0  0  0  0  0  0  0  0
    0.2004    0.9839    4.1748 H   0  0  0  0  0  0  0  0  0  0  0  0
   -0.6244    1.8327    2.8711 H   0  0  0  0  0  0  0  0  0  0  0  0
    1.7110    1.1035    2.1420 H   0  0  0  0  0  0  0  0  0  0  0  0
    1.3375   -0.5765    2.5936 H   0  0  0  0  0  0  0  0  0  0  0  0
   -2.2605    2.4972    0.5865 S   0  0  0  0  0  0  0  0  0  0  0  0
    0.5836    2.6582   -0.7890 C   0  0  0  0  0  0  0  0  0  0  0  0
   -0.6467    2.9015   -1.6340 C   0  0  0  0  0  0  0  0  0  0  0  0
   -0.4801    3.2358   -2.9890 C   0  0  0  0  0  0  0  0  0  0  0  0
   -1.5890    3.4645   -3.8063 C   0  0  0  0  0  0  0  0  0  0  0  0
   -2.8816    3.3597   -3.2819 C   0  0  0  0  0  0  0  0  0  0  0  0
   -3.0609    3.0275   -1.9366 C   0  0  0  0  0  0  0  0  0  0  0  0
   -1.9477    2.7982   -1.1205 C   0  0  0  0  0  0  0  0  0  0  0  0
    0.4443    3.1034    0.2248 H   0  0  0  0  0  0  0  0  0  0  0  0
    1.4546    3.2087   -1.2115 H   0  0  0  0  0  0  0  0  0  0  0  0
    0.5208    3.3229   -3.4057 H   0  0  0  0  0  0  0  0  0  0  0  0
   -1.4472    3.7263   -4.8533 H   0  0  0  0  0  0  0  0  0  0  0  0
   -3.7458    3.5385   -3.9185 H   0  0  0  0  0  0  0  0  0  0  0  0
   -4.0689    2.9529   -1.5255 H   0  0  0  0  0  0  0  0  0  0  0  0
   -2.4392   -2.1458    1.0741 S   0  0  0  0  0  0  0  0  0  0  0  0
    0.4974   -2.8456    0.2369 C   0  0  0  0  0  0  0  0  0  0  0  0
    0.1416   -2.9206    1.7001 C   0  0  0  0  0  0  0  0  0  0  0  0
    1.1228   -3.3203    2.6223 C   0  0  0  0  0  0  0  0  0  0  0  0
    0.8214   -3.4168    3.9828 C   0  0  0  0  0  0  0  0  0  0  0  0
   -0.4647   -3.1122    4.4408 C   0  0  0  0  0  0  0  0  0  0  0  0
   -1.4482   -2.7059    3.5348 C   0  0  0  0  0  0  0  0  0  0  0  0
   -1.1420   -2.6056    2.1742 C   0  0  0  0  0  0  0  0  0  0  0  0
   -0.3595   -3.2380   -0.3757 H   0  0  0  0  0  0  0  0  0  0  0  0
    1.3379   -3.5405    0.0106 H   0  0  0  0  0  0  0  0  0  0  0  0
    2.1245   -3.5663    2.2746 H   0  0  0  0  0  0  0  0  0  0  0  0
    1.5880   -3.7352    4.6872 H   0  0  0  0  0  0  0  0  0  0  0  0
   -0.7011   -3.1950    5.5000 H   0  0  0  0  0  0  0  0  0  0  0  0
   -2.4542   -2.4738    3.8894 H   0  0  0  0  0  0  0  0  0  0  0  0
  2  3  3  0  0  0  0
  1  2  1  0  0  0  0
  5  4  1  0  0  0  0
  6  5  2  0  0  0  0
  7  6  1  0  0  0  0
  8  7  1  0  0  0  0
  9  7  1  0  0  0  0
 10  7  1  0  0  0  0
 11 10  1  0  0  0  0
 12 10  1  0  0  0  0
 13 10  1  0  0  0  0
 13 16  1  0  0  0  0
 14 13  1  0  0  0  0
 15 13  1  0  0  0  0
 16  6  1  0  0  0  0
 16 17  2  0  0  0  0
 17  4  1  0  0  0  0
  1  4  1  0  0  0  0
 18 19  1  0  0  0  0
 18 20  1  0  0  0  0
 18 21  1  0  0  0  0
 18 22  1  0  0  0  0
 19 23  1  0  0  0  0
 19 24  1  0  0  0  0
  4 19  1  0  0  0  0
  1 25  1  0  0  0  0
 26 27  1  0  0  0  0
 27 28  1  0  0  0  0
 28 29  2  0  0  0  0
 29 30  1  0  0  0  0
 30 31  2  0  0  0  0
 31 32  1  0  0  0  0
 27 32  2  0  0  0  0
 26 33  1  0  0  0  0
 26 34  1  0  0  0  0
 28 35  1  0  0  0  0
 29 36  1  0  0  0  0
 30 37  1  0  0  0  0
 31 38  1  0  0  0  0
 25 32  1  0  0  0  0
  1 39  1  0  0  0  0
 40 41  1  0  0  0  0
 41 42  1  0  0  0  0
 42 43  2  0  0  0  0
 43 44  1  0  0  0  0
 44 45  2  0  0  0  0
 45 46  1  0  0  0  0
 41 46  2  0  0  0  0
 40 47  1  0  0  0  0
 40 48  1  0  0  0  0
 42 49  1  0  0  0  0
 43 50  1  0  0  0  0
 44 51  1  0  0  0  0
 45 52  1  0  0  0  0
 39 46  1  0  0  0  0
  5 40  1  0  0  0  0
 17 26  1  0  0  0  0
M  END
> <PM6_ENERGY>
107.620

> <UID>
OJWVYBLDMYDFGT-WDZIXTHHNA-L

> <FITNESS>
1.14206

> <GCODE>
27484

> <GraphENC>
27484 182052_1_0,182053_47_1,182054_78_1,182055_78_1,182056_74_1,182057_74_1,182058_68_1,182059_68_1,182060_79_1,182061_79_1,961396_25_1, 182052_2_182053_1_SINGLE_scaff:0_MPhosphole:1,182053_3_182054_0_SINGLE_LPhospholeSubAlpha:0_ATplus:0,182053_2_182055_0_SINGLE_LPhospholeSubAlpha:0_ATplus:0,182052_0_182056_0_SINGLE_Xlig:0_Xlig:1,182052_1_182057_0_SINGLE_Xlig:0_Xlig:1,182057_1_182058_1_SINGLE_bridge:1_bridge:0,182056_1_182059_1_SINGLE_bridge:1_bridge:0,182059_0_182060_0_SINGLE_bridge:0_ATminus:0,182058_0_182061_0_SINGLE_bridge:0_ATminus:0,182053_0_961396_0_SINGLE_LPhospholeSubR:0_SubRS:1, DENOPTIMRing [vertices=[182054_78_1, 182053_47_1, 182052_1_0, 182056_74_1, 182059_68_1, 182060_79_1]] DENOPTIMRing [vertices=[182055_78_1, 182053_47_1, 182052_1_0, 182057_74_1, 182058_68_1, 182061_79_1]] SymmetricSet [symIds=[182054, 182055]] SymmetricSet [symIds=[182056, 182057]] SymmetricSet [symIds=[182058, 182059]] SymmetricSet [symIds=[182060, 182061]] 

> <GraphJson>
{
  "graphId": 27484,
  "gVertices": [
    {
      "lstAPs": [
        {
          "id": 1161269,
          "atomPositionNumber": 0,
          "atomPositionNumberInMol": 0,
          "apClass": {
            "rule": "Xlig",
            "subClass": 0,
            "bndTyp": "SINGLE"
          },
          "dirVec": {
            "x": -2.3339,
            "y": -0.0087,
            "z": 0.8172
          }
        },
        {
          "id": 1161270,
          "atomPositionNumber": 0,
          "atomPositionNumberInMol": 0,
          "apClass": {
            "rule": "Xlig",
            "subClass": 0,
            "bndTyp": "SINGLE"
          },
          "dirVec": {
            "x": 2.336,
            "y": -5.0E-4,
            "z": 0.829
          }
        },
        {
          "id": 1161271,
          "atomPositionNumber": 0,
          "atomPositionNumberInMol": 0,
          "apClass": {
            "rule": "scaff",
            "subClass": 0,
            "bndTyp": "SINGLE"
          },
          "dirVec": {
            "x": -0.0095,
            "y": 0.0046,
            "z": -1.7113
          }
        }
      ],
      "lstSymAPs": [
        {
          "symIds": [
            0,
            1
          ]
        }
      ],
      "mol": {
        "atoms": [
          {
            "elSymbol": "Pt",
            "p3d": {
              "x": -0.0098,
              "y": 0.0049,
              "z": 0.6289
            }
          },
          {
            "elSymbol": "C",
            "p3d": {
              "x": -6.0E-4,
              "y": 0.0016,
              "z": 2.5609
            }
          },
          {
            "elSymbol": "O",
            "p3d": {
              "x": 0.0025,
              "y": -0.0041,
              "z": 3.6974
            }
          },
          {
            "elSymbol": "Du",
            "p3d": {
              "x": -0.007,
              "y": 1.0013,
              "z": 0.6372
            }
          },
          {
            "elSymbol": "Du",
            "p3d": {
              "x": -0.0014,
              "y": 0.9902,
              "z": 2.5698
            }
          }
        ],
        "bonds": [
          {
            "atomIds": [
              1,
              2
            ],
            "bo": "TRIPLE"
          },
          {
            "atomIds": [
              0,
              1
            ],
            "bo": "SINGLE"
          },
          {
            "atomIds": [
              3,
              0
            ],
            "bo": "SINGLE"
          },
          {
            "atomIds": [
              4,
              1
            ],
            "bo": "SINGLE"
          }
        ]
      },
      "vertexId": 182052,
      "buildingBlockId": 0,
      "buildingBlockType": "SCAFFOLD",
      "isRCV": false,
      "properties": {
        "ATTACHMENT_POINTS": "1#Xlig:0:SINGLE:-2.3339%-0.0087%0.8172,Xlig:0:SINGLE:2.3360%-0.0005%0.8290,scaff:0:SINGLE:-0.0095%0.0046%-1.7113 "
      },
      "uniquefyingPropertyKeys": [],
      "allowedMutationTypes": [
        "DELETE",
        "EXTEND",
        "CHANGEBRANCH",
        "CHANGELINK",
        "ADDLINK",
        "DELETELINK",
        "DELETECHAIN"
      ],
      "vertexType": "MolecularFragment"
    },
    {
      "lstAPs": [
        {
          "id": 1161272,
          "atomPositionNumber": 0,
          "atomPositionNumberInMol": 5,
          "apClass": {
            "rule": "LPhospholeSubR",
            "subClass": 0,
            "bndTyp": "SINGLE"
          },
          "dirVec": {
            "x": -1.6223792475758159,
            "y": 0.14132477366600837,
            "z": -2.568290516038104
          }
        },
        {
          "id": 1161273,
          "atomPositionNumber": 0,
          "atomPositionNumberInMol": 5,
          "apClass": {
            "rule": "MPhosphole",
            "subClass": 1,
            "bndTyp": "SINGLE"
          },
          "dirVec": {
            "x": -0.009800513108591112,
            "y": 0.004900513108591157,
            "z": 0.632902589083087
          }
        },
        {
          "id": 1161274,
          "atomPositionNumber": 1,
          "atomPositionNumberInMol": 6,
          "apClass": {
            "rule": "LPhospholeSubAlpha",
            "subClass": 0,
            "bndTyp": "SINGLE"
          },
          "dirVec": {
            "x": 1.1952099210498432,
            "y": 2.669985792653061,
            "z": -2.3085490332157885
          }
        },
        {
          "id": 1161275,
          "atomPositionNumber": 13,
          "atomPositionNumberInMol": 18,
          "apClass": {
            "rule": "LPhospholeSubAlpha",
            "subClass": 0,
            "bndTyp": "SINGLE"
          },
          "dirVec": {
            "x": 0.4502422566953904,
            "y": -2.9393437322817815,
            "z": -2.274792259665105
          }
        }
      ],
      "lstSymAPs": [
        {
          "symIds": [
            2,
            3
          ]
        }
      ],
      "mol": {
        "atoms": [
          {
            "elSymbol": "P",
            "p3d": {
              "x": -0.009499486891408886,
              "y": 0.004599486891408842,
              "z": -1.7153025890830875
            }
          },
          {
            "elSymbol": "C",
            "p3d": {
              "x": 1.0783338161736449,
              "y": 1.178000381546128,
              "z": -2.5560026635246693
            }
          },
          {
            "elSymbol": "C",
            "p3d": {
              "x": 1.8458852836802766,
              "y": 0.46320912540938514,
              "z": -3.4082000202906215
            }
          },
          {
            "elSymbol": "C",
            "p3d": {
              "x": 2.954333768463528,
              "y": 0.824759678550019,
              "z": -4.369950073113815
            }
          },
          {
            "elSymbol": "H",
            "p3d": {
              "x": 3.87757216603835,
              "y": 1.0568856210794946,
              "z": -3.8389821003995683
            }
          },
          {
            "elSymbol": "H",
            "p3d": {
              "x": 2.6695959919847176,
              "y": 1.6799245447101132,
              "z": -4.984360506237548
            }
          },
          {
            "elSymbol": "C",
            "p3d": {
              "x": 3.0992181734513657,
              "y": -0.44366371249945075,
              "z": -5.216608617173867
            }
          },
          {
            "elSymbol": "H",
            "p3d": {
              "x": 4.148808172636624,
              "y": -0.5943341667214755,
              "z": -5.481575799735818
            }
          },
          {
            "elSymbol": "H",
            "p3d": {
              "x": 2.5123560986654963,
              "y": -0.3536916988386168,
              "z": -6.143449165453795
            }
          },
          {
            "elSymbol": "C",
            "p3d": {
              "x": 2.5757596245276853,
              "y": -1.6272292684271492,
              "z": -4.37343739946048
            }
          },
          {
            "elSymbol": "H",
            "p3d": {
              "x": 2.067568958121175,
              "y": -2.3526812231615017,
              "z": -4.994721076977774
            }
          },
          {
            "elSymbol": "H",
            "p3d": {
              "x": 3.4017618724916288,
              "y": -2.12648343394326,
              "z": -3.869328666573094
            }
          },
          {
            "elSymbol": "C",
            "p3d": {
              "x": 1.653574122857636,
              "y": -0.9806588575835472,
              "z": -3.401091918506773
            }
          },
          {
            "elSymbol": "C",
            "p3d": {
              "x": 0.7467262413835863,
              "y": -1.4689933619345572,
              "z": -2.5304198897116112
            }
          }
        ],
        "bonds": [
          {
            "atomIds": [
              1,
              0
            ],
            "bo": "SINGLE"
          },
          {
            "atomIds": [
              2,
              1
            ],
            "bo": "DOUBLE"
          },
          {
            "atomIds": [
              3,
              2
            ],
            "bo": "SINGLE"
          },
          {
            "atomIds": [
              4,
              3
            ],
            "bo": "SINGLE"
          },
          {
            "atomIds": [
              5,
              3
            ],
            "bo": "SINGLE"
          },
          {
            "atomIds": [
              6,
              3
            ],
            "bo": "SINGLE"
          },
          {
            "atomIds": [
              7,
              6
            ],
            "bo": "SINGLE"
          },
          {
            "atomIds": [
              8,
              6
            ],
            "bo": "SINGLE"
          },
          {
            "atomIds": [
              9,
              6
            ],
            "bo": "SINGLE"
          },
          {
            "atomIds": [
              9,
              12
            ],
            "bo": "SINGLE"
          },
          {
            "atomIds": [
              10,
              9
            ],
            "bo": "SINGLE"
          },
          {
            "atomIds": [
              11,
              9
            ],
            "bo": "SINGLE"
          },
          {
            "atomIds": [
              12,
              2
            ],
            "bo": "SINGLE"
          },
          {
            "atomIds": [
              12,
              13
            ],
            "bo": "DOUBLE"
          },
          {
            "atomIds": [
              13,
              0
            ],
            "bo": "SINGLE"
          }
        ]
      },
      "vertexId": 182053,
      "buildingBlockId": 46,
      "buildingBlockType": "FRAGMENT",
      "isRCV": false,
      "properties": {
        "ATTACHMENT_POINTS": "1#LPhospholeSubR:0:SINGLE:-1.6224%0.1413%-2.5683,MPhosphole:1:SINGLE:-0.0098%0.0049%0.6329 2#LPhospholeSubAlpha:0:SINGLE:1.1952%2.6700%-2.3085 14#LPhospholeSubAlpha:0:SINGLE:0.4502%-2.9393%-2.2748 "
      },
      "uniquefyingPropertyKeys": [],
      "allowedMutationTypes": [
        "DELETE",
        "EXTEND",
        "CHANGEBRANCH",
        "CHANGELINK",
        "ADDLINK",
        "DELETELINK",
        "DELETECHAIN"
      ],
      "vertexType": "MolecularFragment"
    },
    {
      "lstAPs": [
        {
          "id": 1161276,
          "atomPositionNumber": 0,
          "atomPositionNumberInMol": 19,
          "apClass": {
            "rule": "ATplus",
            "subClass": 0,
            "bndTyp": "ANY"
          },
          "dirVec": {
            "x": 0.4502422566953904,
            "y": -2.9393437322817815,
            "z": -2.274792259665105
          }
        }
      ],
      "lstSymAPs": [],
      "mol": {
        "atoms": [
          {
            "elSymbol": "ATP",
            "p3d": {
              "x": 0.44615185701331184,
              "y": -2.959629214796925,
              "z": -2.2712655289454933
            }
          }
        ],
        "bonds": []
      },
      "vertexId": 182054,
      "buildingBlockId": 77,
      "buildingBlockType": "FRAGMENT",
      "isRCV": true,
      "properties": {
        "ATTACHMENT_POINTS": "1#ATplus:0:ANY:0.4502%-2.9393%-2.2748 "
      },
      "uniquefyingPropertyKeys": [],
      "allowedMutationTypes": [
        "DELETE",
        "EXTEND",
        "CHANGEBRANCH",
        "CHANGELINK",
        "ADDLINK",
        "DELETELINK",
        "DELETECHAIN"
      ],
      "vertexType": "MolecularFragment"
    },
    {
      "lstAPs": [
        {
          "id": 1161277,
          "atomPositionNumber": 0,
          "atomPositionNumberInMol": 20,
          "apClass": {
            "rule": "ATplus",
            "subClass": 0,
            "bndTyp": "ANY"
          },
          "dirVec": {
            "x": 1.1952099210498432,
            "y": 2.669985792653061,
            "z": -2.3085490332157885
          }
        }
      ],
      "lstSymAPs": [],
      "mol": {
        "atoms": [
          {
            "elSymbol": "ATP",
            "p3d": {
              "x": 1.19682737639236,
              "y": 2.6906334671859207,
              "z": -2.3051245077596034
            }
          }
        ],
        "bonds": []
      },
      "vertexId": 182055,
      "buildingBlockId": 77,
      "buildingBlockType": "FRAGMENT",
      "isRCV": true,
      "properties": {
        "ATTACHMENT_POINTS": "1#ATplus:0:ANY:1.1952%2.6700%-2.3085 "
      },
      "uniquefyingPropertyKeys": [],
      "allowedMutationTypes": [
        "DELETE",
        "EXTEND",
        "CHANGEBRANCH",
        "CHANGELINK",
        "ADDLINK",
        "DELETELINK",
        "DELETECHAIN"
      ],
      "vertexType": "MolecularFragment"
    },
    {
      "lstAPs": [
        {
          "id": 1161278,
          "atomPositionNumber": 0,
          "atomPositionNumberInMol": 28,
          "apClass": {
            "rule": "Xlig",
            "subClass": 1,
            "bndTyp": "SINGLE"
          },
          "dirVec": {
            "x": -0.102,
            "y": 0.0185,
            "z": -1.0265
          }
        },
        {
          "id": 1161279,
          "atomPositionNumber": 0,
          "atomPositionNumberInMol": 28,
          "apClass": {
            "rule": "bridge",
            "subClass": 1,
            "bndTyp": "SINGLE"
          },
          "dirVec": {
            "x": -0.626,
            "y": 2.4866,
            "z": 0.7805
          }
        }
      ],
      "lstSymAPs": [],
      "mol": {
        "atoms": [
          {
            "elSymbol": "S",
            "p3d": {
              "x": -0.3267,
              "y": 2.3403,
              "z": -1.0022
            }
          }
        ],
        "bonds": []
      },
      "vertexId": 182056,
      "buildingBlockId": 73,
      "buildingBlockType": "FRAGMENT",
      "isRCV": false,
      "properties": {
        "ATTACHMENT_POINTS": "1#Xlig:1:SINGLE:-0.1020%0.0185%-1.0265,bridge:1:SINGLE:-0.6260%2.4866%0.7805 "
      },
      "uniquefyingPropertyKeys": [],
      "allowedMutationTypes": [
        "DELETE",
        "EXTEND",
        "CHANGEBRANCH",
        "CHANGELINK",
        "ADDLINK",
        "DELETELINK",
        "DELETECHAIN"
      ],
      "vertexType": "MolecularFragment"
    },
    {
      "lstAPs": [
        {
          "id": 1161280,
          "atomPositionNumber": 0,
          "atomPositionNumberInMol": 43,
          "apClass": {
            "rule": "Xlig",
            "subClass": 1,
            "bndTyp": "SINGLE"
          },
          "dirVec": {
            "x": -0.102,
            "y": 0.0185,
            "z": -1.0265
          }
        },
        {
          "id": 1161281,
          "atomPositionNumber": 0,
          "atomPositionNumberInMol": 43,
          "apClass": {
            "rule": "bridge",
            "subClass": 1,
            "bndTyp": "SINGLE"
          },
          "dirVec": {
            "x": -0.626,
            "y": 2.4866,
            "z": 0.7805
          }
        }
      ],
      "lstSymAPs": [],
      "mol": {
        "atoms": [
          {
            "elSymbol": "S",
            "p3d": {
              "x": -0.3267,
              "y": 2.3403,
              "z": -1.0022
            }
          }
        ],
        "bonds": []
      },
      "vertexId": 182057,
      "buildingBlockId": 73,
      "buildingBlockType": "FRAGMENT",
      "isRCV": false,
      "properties": {
        "ATTACHMENT_POINTS": "1#Xlig:1:SINGLE:-0.1020%0.0185%-1.0265,bridge:1:SINGLE:-0.6260%2.4866%0.7805 "
      },
      "uniquefyingPropertyKeys": [],
      "allowedMutationTypes": [
        "DELETE",
        "EXTEND",
        "CHANGEBRANCH",
        "CHANGELINK",
        "ADDLINK",
        "DELETELINK",
        "DELETECHAIN"
      ],
      "vertexType": "MolecularFragment"
    },
    {
      "lstAPs": [
        {
          "id": 1161282,
          "atomPositionNumber": 0,
          "atomPositionNumberInMol": 44,
          "apClass": {
            "rule": "bridge",
            "subClass": 0,
            "bndTyp": "SINGLE"
          },
          "dirVec": {
            "x": -2.5958,
            "y": -0.6501,
            "z": -0.7558
          }
        },
        {
          "id": 1161283,
          "atomPositionNumber": 6,
          "atomPositionNumberInMol": 50,
          "apClass": {
            "rule": "bridge",
            "subClass": 0,
            "bndTyp": "SINGLE"
          },
          "dirVec": {
            "x": -0.8149,
            "y": 2.0931,
            "z": 0.1475
          }
        }
      ],
      "lstSymAPs": [],
      "mol": {
        "atoms": [
          {
            "elSymbol": "C",
            "p3d": {
              "x": -1.8258,
              "y": -0.5811,
              "z": 0.5645
            }
          },
          {
            "elSymbol": "C",
            "p3d": {
              "x": -0.3615,
              "y": -0.3647,
              "z": 0.2814
            }
          },
          {
            "elSymbol": "C",
            "p3d": {
              "x": 0.4975,
              "y": -1.4461,
              "z": 0.2179
            }
          },
          {
            "elSymbol": "C",
            "p3d": {
              "x": 1.8404,
              "y": -1.2477,
              "z": -0.0418
            }
          },
          {
            "elSymbol": "C",
            "p3d": {
              "x": 2.3248,
              "y": 0.0323,
              "z": -0.2386
            }
          },
          {
            "elSymbol": "C",
            "p3d": {
              "x": 1.4658,
              "y": 1.1133,
              "z": -0.1761
            }
          },
          {
            "elSymbol": "C",
            "p3d": {
              "x": 0.1217,
              "y": 0.9144,
              "z": 0.0794
            }
          },
          {
            "elSymbol": "H",
            "p3d": {
              "x": -2.206,
              "y": 0.246,
              "z": 1.164
            }
          },
          {
            "elSymbol": "H",
            "p3d": {
              "x": -1.956,
              "y": -1.5155,
              "z": 1.1104
            }
          },
          {
            "elSymbol": "H",
            "p3d": {
              "x": 0.1192,
              "y": -2.446,
              "z": 0.3716
            }
          },
          {
            "elSymbol": "H",
            "p3d": {
              "x": 2.5116,
              "y": -2.0924,
              "z": -0.0906
            }
          },
          {
            "elSymbol": "H",
            "p3d": {
              "x": 3.3743,
              "y": 0.1874,
              "z": -0.4409
            }
          },
          {
            "elSymbol": "H",
            "p3d": {
              "x": 1.8441,
              "y": 2.1132,
              "z": -0.3295
            }
          }
        ],
        "bonds": [
          {
            "atomIds": [
              0,
              1
            ],
            "bo": "SINGLE"
          },
          {
            "atomIds": [
              1,
              2
            ],
            "bo": "SINGLE"
          },
          {
            "atomIds": [
              2,
              3
            ],
            "bo": "DOUBLE"
          },
          {
            "atomIds": [
              3,
              4
            ],
            "bo": "SINGLE"
          },
          {
            "atomIds": [
              4,
              5
            ],
            "bo": "DOUBLE"
          },
          {
            "atomIds": [
              5,
              6
            ],
            "bo": "SINGLE"
          },
          {
            "atomIds": [
              1,
              6
            ],
            "bo": "DOUBLE"
          },
          {
            "atomIds": [
              0,
              7
            ],
            "bo": "SINGLE"
          },
          {
            "atomIds": [
              0,
              8
            ],
            "bo": "SINGLE"
          },
          {
            "atomIds": [
              2,
              9
            ],
            "bo": "SINGLE"
          },
          {
            "atomIds": [
              3,
              10
            ],
            "bo": "SINGLE"
          },
          {
            "atomIds": [
              4,
              11
            ],
            "bo": "SINGLE"
          },
          {
            "atomIds": [
              5,
              12
            ],
            "bo": "SINGLE"
          }
        ]
      },
      "vertexId": 182058,
      "buildingBlockId": 67,
      "buildingBlockType": "FRAGMENT",
      "isRCV": false,
      "properties": {
        "ATTACHMENT_POINTS": "1#bridge:0:SINGLE:-2.5958%-0.6501%-0.7558 7#bridge:0:SINGLE:-0.8149%2.0931%0.1475 "
      },
      "uniquefyingPropertyKeys": [],
      "allowedMutationTypes": [
        "DELETE",
        "EXTEND",
        "CHANGEBRANCH",
        "CHANGELINK",
        "ADDLINK",
        "DELETELINK",
        "DELETECHAIN"
      ],
      "vertexType": "MolecularFragment"
    },
    {
      "lstAPs": [
        {
          "id": 1161284,
          "atomPositionNumber": 0,
          "atomPositionNumberInMol": 29,
          "apClass": {
            "rule": "bridge",
            "subClass": 0,
            "bndTyp": "SINGLE"
          },
          "dirVec": {
            "x": -2.5958,
            "y": -0.6501,
            "z": -0.7558
          }
        },
        {
          "id": 1161285,
          "atomPositionNumber": 6,
          "atomPositionNumberInMol": 35,
          "apClass": {
            "rule": "bridge",
            "subClass": 0,
            "bndTyp": "SINGLE"
          },
          "dirVec": {
            "x": -0.8149,
            "y": 2.0931,
            "z": 0.1475
          }
        }
      ],
      "lstSymAPs": [],
      "mol": {
        "atoms": [
          {
            "elSymbol": "C",
            "p3d": {
              "x": -1.8258,
              "y": -0.5811,
              "z": 0.5645
            }
          },
          {
            "elSymbol": "C",
            "p3d": {
              "x": -0.3615,
              "y": -0.3647,
              "z": 0.2814
            }
          },
          {
            "elSymbol": "C",
            "p3d": {
              "x": 0.4975,
              "y": -1.4461,
              "z": 0.2179
            }
          },
          {
            "elSymbol": "C",
            "p3d": {
              "x": 1.8404,
              "y": -1.2477,
              "z": -0.0418
            }
          },
          {
            "elSymbol": "C",
            "p3d": {
              "x": 2.3248,
              "y": 0.0323,
              "z": -0.2386
            }
          },
          {
            "elSymbol": "C",
            "p3d": {
              "x": 1.4658,
              "y": 1.1133,
              "z": -0.1761
            }
          },
          {
            "elSymbol": "C",
            "p3d": {
              "x": 0.1217,
              "y": 0.9144,
              "z": 0.0794
            }
          },
          {
            "elSymbol": "H",
            "p3d": {
              "x": -2.206,
              "y": 0.246,
              "z": 1.164
            }
          },
          {
            "elSymbol": "H",
            "p3d": {
              "x": -1.956,
              "y": -1.5155,
              "z": 1.1104
            }
          },
          {
            "elSymbol": "H",
            "p3d": {
              "x": 0.1192,
              "y": -2.446,
              "z": 0.3716
            }
          },
          {
            "elSymbol": "H",
            "p3d": {
              "x": 2.5116,
              "y": -2.0924,
              "z": -0.0906
            }
          },
          {
            "elSymbol": "H",
            "p3d": {
              "x": 3.3743,
              "y": 0.1874,
              "z": -0.4409
            }
          },
          {
            "elSymbol": "H",
            "p3d": {
              "x": 1.8441,
              "y": 2.1132,
              "z": -0.3295
            }
          }
        ],
        "bonds": [
          {
            "atomIds": [
              0,
              1
            ],
            "bo": "SINGLE"
          },
          {
            "atomIds": [
              1,
              2
            ],
            "bo": "SINGLE"
          },
          {
            "atomIds": [
              2,
              3
            ],
            "bo": "DOUBLE"
          },
          {
            "atomIds": [
              3,
              4
            ],
            "bo": "SINGLE"
          },
          {
            "atomIds": [
              4,
              5
            ],
            "bo": "DOUBLE"
          },
          {
            "atomIds": [
              5,
              6
            ],
            "bo": "SINGLE"
          },
          {
            "atomIds": [
              1,
              6
            ],
            "bo": "DOUBLE"
          },
          {
            "atomIds": [
              0,
              7
            ],
            "bo": "SINGLE"
          },
          {
            "atomIds": [
              0,
              8
            ],
            "bo": "SINGLE"
          },
          {
            "atomIds": [
              2,
              9
            ],
            "bo": "SINGLE"
          },
          {
            "atomIds": [
              3,
              10
            ],
            "bo": "SINGLE"
          },
          {
            "atomIds": [
              4,
              11
            ],
            "bo": "SINGLE"
          },
          {
            "atomIds": [
              5,
              12
            ],
            "bo": "SINGLE"
          }
        ]
      },
      "vertexId": 182059,
      "buildingBlockId": 67,
      "buildingBlockType": "FRAGMENT",
      "isRCV": false,
      "properties": {
        "ATTACHMENT_POINTS": "1#bridge:0:SINGLE:-2.5958%-0.6501%-0.7558 7#bridge:0:SINGLE:-0.8149%2.0931%0.1475 "
      },
      "uniquefyingPropertyKeys": [],
      "allowedMutationTypes": [
        "DELETE",
        "EXTEND",
        "CHANGEBRANCH",
        "CHANGELINK",
        "ADDLINK",
        "DELETELINK",
        "DELETECHAIN"
      ],
      "vertexType": "MolecularFragment"
    },
    {
      "lstAPs": [
        {
          "id": 1161286,
          "atomPositionNumber": 0,
          "atomPositionNumberInMol": 42,
          "apClass": {
            "rule": "ATminus",
            "subClass": 0,
            "bndTyp": "ANY"
          },
          "dirVec": {
            "x": 0.0109,
            "y": -0.0071,
            "z": 0.0026
          }
        }
      ],
      "lstSymAPs": [],
      "mol": {
        "atoms": [
          {
            "elSymbol": "ATM",
            "p3d": {
              "x": -0.0096,
              "y": 0.0045,
              "z": -0.0011
            }
          }
        ],
        "bonds": []
      },
      "vertexId": 182060,
      "buildingBlockId": 78,
      "buildingBlockType": "FRAGMENT",
      "isRCV": true,
      "properties": {
        "ATTACHMENT_POINTS": "1#ATminus:0:ANY:0.0109%-0.0071%0.0026 "
      },
      "uniquefyingPropertyKeys": [],
      "allowedMutationTypes": [
        "DELETE",
        "EXTEND",
        "CHANGEBRANCH",
        "CHANGELINK",
        "ADDLINK",
        "DELETELINK",
        "DELETECHAIN"
      ],
      "vertexType": "MolecularFragment"
    },
    {
      "lstAPs": [
        {
          "id": 1161287,
          "atomPositionNumber": 0,
          "atomPositionNumberInMol": 57,
          "apClass": {
            "rule": "ATminus",
            "subClass": 0,
            "bndTyp": "ANY"
          },
          "dirVec": {
            "x": 0.0109,
            "y": -0.0071,
            "z": 0.0026
          }
        }
      ],
      "lstSymAPs": [],
      "mol": {
        "atoms": [
          {
            "elSymbol": "ATM",
            "p3d": {
              "x": -0.0096,
              "y": 0.0045,
              "z": -0.0011
            }
          }
        ],
        "bonds": []
      },
      "vertexId": 182061,
      "buildingBlockId": 78,
      "buildingBlockType": "FRAGMENT",
      "isRCV": true,
      "properties": {
        "ATTACHMENT_POINTS": "1#ATminus:0:ANY:0.0109%-0.0071%0.0026 "
      },
      "uniquefyingPropertyKeys": [],
      "allowedMutationTypes": [
        "DELETE",
        "EXTEND",
        "CHANGEBRANCH",
        "CHANGELINK",
        "ADDLINK",
        "DELETELINK",
        "DELETECHAIN"
      ],
      "vertexType": "MolecularFragment"
    },
    {
      "lstAPs": [
        {
          "id": 1161348,
          "atomPositionNumber": 1,
          "atomPositionNumberInMol": 22,
          "apClass": {
            "rule": "SubRS",
            "subClass": 1,
            "bndTyp": "SINGLE"
          },
          "dirVec": {
            "x": 0.2985,
            "y": 0.384,
            "z": -0.6258
          }
        }
      ],
      "lstSymAPs": [],
      "mol": {
        "atoms": [
          {
            "elSymbol": "C",
            "p3d": {
              "x": -1.0244,
              "y": -0.2225,
              "z": 1.3991
            }
          },
          {
            "elSymbol": "C",
            "p3d": {
              "x": 0.3973,
              "y": -0.042,
              "z": 0.8195
            }
          },
          {
            "elSymbol": "H",
            "p3d": {
              "x": -1.5635,
              "y": -0.9908,
              "z": 0.8263
            }
          },
          {
            "elSymbol": "H",
            "p3d": {
              "x": -0.941,
              "y": -0.535,
              "z": 2.446
            }
          },
          {
            "elSymbol": "H",
            "p3d": {
              "x": -1.5586,
              "y": 0.7335,
              "z": 1.3382
            }
          },
          {
            "elSymbol": "H",
            "p3d": {
              "x": 0.9335,
              "y": 0.7221,
              "z": 1.4011
            }
          },
          {
            "elSymbol": "H",
            "p3d": {
              "x": 0.927,
              "y": -1.0102,
              "z": 0.9001
            }
          }
        ],
        "bonds": [
          {
            "atomIds": [
              0,
              1
            ],
            "bo": "SINGLE"
          },
          {
            "atomIds": [
              0,
              2
            ],
            "bo": "SINGLE"
          },
          {
            "atomIds": [
              0,
              3
            ],
            "bo": "SINGLE"
          },
          {
            "atomIds": [
              0,
              4
            ],
            "bo": "SINGLE"
          },
          {
            "atomIds": [
              1,
              5
            ],
            "bo": "SINGLE"
          },
          {
            "atomIds": [
              1,
              6
            ],
            "bo": "SINGLE"
          }
        ]
      },
      "vertexId": 961396,
      "buildingBlockId": 24,
      "buildingBlockType": "FRAGMENT",
      "isRCV": false,
      "properties": {
        "ATTACHMENT_POINTS": "2#SubRS:1:SINGLE:0.2985%0.3840%-0.6258 "
      },
      "uniquefyingPropertyKeys": [],
      "allowedMutationTypes": [
        "DELETE",
        "EXTEND",
        "CHANGEBRANCH",
        "CHANGELINK",
        "ADDLINK",
        "DELETELINK",
        "DELETECHAIN"
      ],
      "vertexType": "MolecularFragment"
    }
  ],
  "gEdges": [
    {
      "srcAPID": 1161271,
      "trgAPID": 1161273,
      "bondType": "SINGLE"
    },
    {
      "srcAPID": 1161275,
      "trgAPID": 1161276,
      "bondType": "SINGLE"
    },
    {
      "srcAPID": 1161274,
      "trgAPID": 1161277,
      "bondType": "SINGLE"
    },
    {
      "srcAPID": 1161269,
      "trgAPID": 1161278,
      "bondType": "SINGLE"
    },
    {
      "srcAPID": 1161270,
      "trgAPID": 1161280,
      "bondType": "SINGLE"
    },
    {
      "srcAPID": 1161281,
      "trgAPID": 1161283,
      "bondType": "SINGLE"
    },
    {
      "srcAPID": 1161279,
      "trgAPID": 1161285,
      "bondType": "SINGLE"
    },
    {
      "srcAPID": 1161284,
      "trgAPID": 1161286,
      "bondType": "SINGLE"
    },
    {
      "srcAPID": 1161282,
      "trgAPID": 1161287,
      "bondType": "SINGLE"
    },
    {
      "srcAPID": 1161272,
      "trgAPID": 1161348,
      "bondType": "SINGLE"
    }
  ],
  "gRings": [
    {
      "vertices": [
        182054,
        182053,
        182052,
        182056,
        182059,
        182060
      ],
      "bndTyp": "SINGLE"
    },
    {
      "vertices": [
        182055,
        182053,
        182052,
        182057,
        182058,
        182061
      ],
      "bndTyp": "SINGLE"
    }
  ],
  "symVertices": [
    {
      "symIds": [
        182054,
        182055
      ]
    },
    {
      "symIds": [
        182056,
        182057
      ]
    },
    {
      "symIds": [
        182058,
        182059
      ]
    },
    {
      "symIds": [
        182060,
        182061
      ]
    }
  ]
}

> <SMILES>
[Pt]12(C#O)[P]3(C(=C4C([H])([H])C([H])([H])C(C4=C3C(C=5C(=C(C(=C(C5S1)[H])[H])[H])[H])([H])[H])([H])[H])C(C=6C(=C(C(=C(C6S2)[H])[H])[H])[H])([H])[H])C(C([H])([H])[H])([H])[H]

$$$$
