M10012896
  CDK     05042201263D

 40 42  0  0  0  0  0  0  0  0999 V2000
   -0.0043   -0.0004   -0.8271 Pt  0  0  0  0  0  0  0  0  0  0  0  0
   -0.0143   -0.0010   -2.7436 C   0  0  0  0  0  0  0  0  0  0  0  0
   -0.0204   -0.0014   -3.8896 O   0  0  0  0  0  0  0  0  0  0  0  0
    0.0059    0.0004    1.1498 N   0  0  0  0  0  0  0  0  0  0  0  0
    0.4041    1.1483    1.8484 C   0  0  0  0  0  0  0  0  0  0  0  0
    0.4090    1.1339    3.2628 C   0  0  0  0  0  0  0  0  0  0  0  0
    0.7202    2.0304    3.7958 H   0  0  0  0  0  0  0  0  0  0  0  0
    0.0200    0.0017    3.9671 C   0  0  0  0  0  0  0  0  0  0  0  0
    0.0254    0.0022    5.0590 H   0  0  0  0  0  0  0  0  0  0  0  0
   -0.3759   -1.1312    3.2678 C   0  0  0  0  0  0  0  0  0  0  0  0
   -0.6817   -2.0272    3.8047 H   0  0  0  0  0  0  0  0  0  0  0  0
   -0.3850   -1.1469    1.8534 C   0  0  0  0  0  0  0  0  0  0  0  0
   -0.4889   -1.9774   -1.1200 O   0  0  0  0  0  0  0  0  0  0  0  0
   -0.7968   -2.3555    1.2083 C   0  0  0  0  0  0  0  0  0  0  0  0
   -0.8259   -2.7309   -0.1067 C   0  0  0  0  0  0  0  0  0  0  0  0
   -1.1310   -3.1221    1.9227 H   0  0  0  0  0  0  0  0  0  0  0  0
   -0.0696   -4.8577   -1.1705 C   0  0  0  0  0  0  0  0  0  0  0  0
   -1.2599   -4.1362   -0.5352 C   0  0  0  0  0  0  0  0  0  0  0  0
   -2.4489   -4.0372   -1.4925 C   0  0  0  0  0  0  0  0  0  0  0  0
   -3.3095   -3.5501   -1.0194 H   0  0  0  0  0  0  0  0  0  0  0  0
   -2.7707   -5.0288   -1.8295 H   0  0  0  0  0  0  0  0  0  0  0  0
   -2.1916   -3.4518   -2.3862 H   0  0  0  0  0  0  0  0  0  0  0  0
    0.7665   -4.9549   -0.4681 H   0  0  0  0  0  0  0  0  0  0  0  0
   -0.3465   -5.8649   -1.5008 H   0  0  0  0  0  0  0  0  0  0  0  0
    0.3027   -4.3128   -2.0494 H   0  0  0  0  0  0  0  0  0  0  0  0
   -1.5799   -4.7043    0.3764 H   0  0  0  0  0  0  0  0  0  0  0  0
    0.4772    1.9765   -1.1266 O   0  0  0  0  0  0  0  0  0  0  0  0
    0.8097    2.3561    1.1981 C   0  0  0  0  0  0  0  0  0  0  0  0
    0.8254    2.7305   -0.1174 C   0  0  0  0  0  0  0  0  0  0  0  0
    1.1518    3.1231    1.9084 H   0  0  0  0  0  0  0  0  0  0  0  0
    0.0582    4.8585   -1.1708 C   0  0  0  0  0  0  0  0  0  0  0  0
    1.2559    4.1351   -0.5514 C   0  0  0  0  0  0  0  0  0  0  0  0
    2.4320    4.0348   -1.5243 C   0  0  0  0  0  0  0  0  0  0  0  0
    3.2980    3.5462   -1.0628 H   0  0  0  0  0  0  0  0  0  0  0  0
    2.7508    5.0260   -1.8653 H   0  0  0  0  0  0  0  0  0  0  0  0
    2.1621    3.4500   -2.4149 H   0  0  0  0  0  0  0  0  0  0  0  0
   -0.7685    4.9564   -0.4575 H   0  0  0  0  0  0  0  0  0  0  0  0
    0.3321    5.8656   -1.5041 H   0  0  0  0  0  0  0  0  0  0  0  0
   -0.3262    4.3146   -2.0451 H   0  0  0  0  0  0  0  0  0  0  0  0
    1.5887    4.7027    0.3560 H   0  0  0  0  0  0  0  0  0  0  0  0
  2  3  3  0  0  0  0
  1  2  1  0  0  0  0
  6  5  1  0  0  0  0
  7  6  1  0  0  0  0
  8  6  2  0  0  0  0
  9  8  1  0  0  0  0
 10  8  1  0  0  0  0
 10 12  2  0  0  0  0
 11 10  1  0  0  0  0
 12  4  1  0  0  0  0
  4  5  2  0  0  0  0
  1  4  1  0  0  0  0
  1 13  1  0  0  0  0
 14 15  2  0  0  0  0
 14 16  1  0  0  0  0
 13 15  1  0  0  0  0
 17 18  1  0  0  0  0
 18 19  1  0  0  0  0
 19 20  1  0  0  0  0
 19 21  1  0  0  0  0
 19 22  1  0  0  0  0
 17 23  1  0  0  0  0
 17 24  1  0  0  0  0
 17 25  1  0  0  0  0
 18 26  1  0  0  0  0
 15 18  1  0  0  0  0
  1 27  1  0  0  0  0
 28 29  2  0  0  0  0
 28 30  1  0  0  0  0
 27 29  1  0  0  0  0
 31 32  1  0  0  0  0
 32 33  1  0  0  0  0
 33 34  1  0  0  0  0
 33 35  1  0  0  0  0
 33 36  1  0  0  0  0
 31 37  1  0  0  0  0
 31 38  1  0  0  0  0
 31 39  1  0  0  0  0
 32 40  1  0  0  0  0
 29 32  1  0  0  0  0
  5 28  1  0  0  0  0
 12 14  1  0  0  0  0
M  END
> <PM6_ENERGY>
-266.867

> <UID>
IYHCHZPINSETNR-BSVHHNKQNA-L

> <FITNESS>
1.14602

> <GCODE>
21123

> <GraphENC>
21123 1183516_1_0,1183517_64_1,1183518_79_1,1183519_79_1,1183520_73_1,1183521_73_1,1183522_72_1,1183523_72_1,1183524_80_1,1183525_26_1,1183526_26_1,1183527_80_1, 1183516_2_1183517_0_SINGLE_scaff:0_MPyridine:1,1183517_1_1183518_0_SINGLE_LPyridineAlpha:0_ATplus:0,1183517_2_1183519_0_SINGLE_LPyridineAlpha:0_ATplus:0,1183516_1_1183520_0_SINGLE_Xlig:0_Xlig:1,1183516_0_1183521_0_SINGLE_Xlig:0_Xlig:1,1183520_1_1183522_1_SINGLE_bridge:1_bridge:0,1183521_1_1183523_1_SINGLE_bridge:1_bridge:0,1183522_0_1183524_0_SINGLE_bridge:0_ATminus:0,1183522_2_1183525_0_SINGLE_SubBridge:0_SubRM:1,1183523_2_1183526_0_SINGLE_SubBridge:0_SubRM:1,1183523_0_1183527_0_SINGLE_bridge:0_ATminus:0, DENOPTIMRing [vertices=[1183518_79_1, 1183517_64_1, 1183516_1_0, 1183521_73_1, 1183523_72_1, 1183527_80_1]] DENOPTIMRing [vertices=[1183519_79_1, 1183517_64_1, 1183516_1_0, 1183520_73_1, 1183522_72_1, 1183524_80_1]] SymmetricSet [symIds=[1183518, 1183519]] SymmetricSet [symIds=[1183520, 1183521]] SymmetricSet [symIds=[1183522, 1183523]] SymmetricSet [symIds=[1183524, 1183527]] SymmetricSet [symIds=[1183525, 1183526]] 

> <GraphJson>
{
  "graphId": 21123,
  "gVertices": [
    {
      "lstAPs": [
        {
          "id": 2089620,
          "atomPositionNumber": 0,
          "atomPositionNumberInMol": -1,
          "apClass": {
            "rule": "Xlig",
            "subClass": 0,
            "bndTyp": "SINGLE"
          },
          "dirVec": {
            "x": -2.3339,
            "y": -0.0087,
            "z": 0.8172
          }
        },
        {
          "id": 2089621,
          "atomPositionNumber": 0,
          "atomPositionNumberInMol": -1,
          "apClass": {
            "rule": "Xlig",
            "subClass": 0,
            "bndTyp": "SINGLE"
          },
          "dirVec": {
            "x": 2.336,
            "y": -5.0E-4,
            "z": 0.829
          }
        },
        {
          "id": 2089622,
          "atomPositionNumber": 0,
          "atomPositionNumberInMol": -1,
          "apClass": {
            "rule": "scaff",
            "subClass": 0,
            "bndTyp": "SINGLE"
          },
          "dirVec": {
            "x": -0.0095,
            "y": 0.0046,
            "z": -1.7113
          }
        }
      ],
      "lstSymAPs": [
        {
          "symIds": [
            0,
            1
          ]
        }
      ],
      "mol": {
        "atoms": [
          {
            "elSymbol": "Pt",
            "p3d": {
              "x": -0.0098,
              "y": 0.0049,
              "z": 0.6289
            }
          },
          {
            "elSymbol": "C",
            "p3d": {
              "x": -6.0E-4,
              "y": 0.0016,
              "z": 2.5609
            }
          },
          {
            "elSymbol": "O",
            "p3d": {
              "x": 0.0025,
              "y": -0.0041,
              "z": 3.6974
            }
          },
          {
            "elSymbol": "Du",
            "p3d": {
              "x": -0.007,
              "y": 1.0013,
              "z": 0.6372
            }
          },
          {
            "elSymbol": "Du",
            "p3d": {
              "x": -0.0014,
              "y": 0.9902,
              "z": 2.5698
            }
          }
        ],
        "bonds": [
          {
            "atomIds": [
              1,
              2
            ],
            "bo": "TRIPLE"
          },
          {
            "atomIds": [
              0,
              1
            ],
            "bo": "SINGLE"
          },
          {
            "atomIds": [
              3,
              0
            ],
            "bo": "SINGLE"
          },
          {
            "atomIds": [
              4,
              1
            ],
            "bo": "SINGLE"
          }
        ]
      },
      "vertexId": 1183516,
      "buildingBlockId": 0,
      "buildingBlockType": "SCAFFOLD",
      "isRCV": false,
      "properties": {
        "ATTACHMENT_POINTS": "1#Xlig:0:SINGLE:-2.3339%-0.0087%0.8172,Xlig:0:SINGLE:2.3360%-0.0005%0.8290,scaff:0:SINGLE:-0.0095%0.0046%-1.7113 ",
        "OLDVERTEXID": 201
      },
      "uniquefyingPropertyKeys": [],
      "allowedMutationTypes": [
        "DELETE",
        "EXTEND",
        "CHANGEBRANCH",
        "CHANGELINK",
        "ADDLINK",
        "DELETELINK",
        "DELETECHAIN"
      ],
      "vertexType": "MolecularFragment"
    },
    {
      "lstAPs": [
        {
          "id": 2089623,
          "atomPositionNumber": 0,
          "atomPositionNumberInMol": -1,
          "apClass": {
            "rule": "MPyridine",
            "subClass": 1,
            "bndTyp": "SINGLE"
          },
          "dirVec": {
            "x": -0.009779377457537534,
            "y": 0.004879377457537382,
            "z": 0.4680304204308088
          }
        },
        {
          "id": 2089624,
          "atomPositionNumber": 1,
          "atomPositionNumberInMol": -1,
          "apClass": {
            "rule": "LPyridineAlpha",
            "subClass": 0,
            "bndTyp": "SINGLE"
          },
          "dirVec": {
            "x": 1.7498113878580424,
            "y": -1.5425521902462944,
            "z": -1.2670236023275012
          }
        },
        {
          "id": 2089625,
          "atomPositionNumber": 8,
          "atomPositionNumberInMol": -1,
          "apClass": {
            "rule": "LPyridineAlpha",
            "subClass": 0,
            "bndTyp": "SINGLE"
          },
          "dirVec": {
            "x": -1.623992272866726,
            "y": 1.694540172820501,
            "z": -1.2840127710767786
          }
        }
      ],
      "lstSymAPs": [
        {
          "symIds": [
            1,
            2
          ]
        }
      ],
      "mol": {
        "atoms": [
          {
            "elSymbol": "N",
            "p3d": {
              "x": -0.009520622542462467,
              "y": 0.004620622542462618,
              "z": -1.5504304204308088
            }
          },
          {
            "elSymbol": "C",
            "p3d": {
              "x": 0.8426955164535905,
              "y": -0.8472127361782159,
              "z": -2.181427719478363
            }
          },
          {
            "elSymbol": "C",
            "p3d": {
              "x": 0.7971687590727337,
              "y": -0.9082893750711706,
              "z": -3.5798092977837723
            }
          },
          {
            "elSymbol": "H",
            "p3d": {
              "x": 1.3486670490833412,
              "y": -1.52302742265968,
              "z": -4.050646274838936
            }
          },
          {
            "elSymbol": "C",
            "p3d": {
              "x": -0.055461761672130454,
              "y": -0.06992844379434703,
              "z": -4.269187919444612
            }
          },
          {
            "elSymbol": "H",
            "p3d": {
              "x": -0.07372803298688399,
              "y": -0.09851265747929987,
              "z": -5.218166473501693
            }
          },
          {
            "elSymbol": "C",
            "p3d": {
              "x": -0.8903705558629028,
              "y": 0.8192168796905219,
              "z": -3.5958046191557655
            }
          },
          {
            "elSymbol": "H",
            "p3d": {
              "x": -1.467637017665257,
              "y": 1.402288830115317,
              "z": -4.075034076416081
            }
          },
          {
            "elSymbol": "C",
            "p3d": {
              "x": -0.856929403375486,
              "y": 0.830711007593109,
              "z": -2.199893416985629
            }
          }
        ],
        "bonds": [
          {
            "atomIds": [
              2,
              1
            ],
            "bo": "SINGLE"
          },
          {
            "atomIds": [
              3,
              2
            ],
            "bo": "SINGLE"
          },
          {
            "atomIds": [
              4,
              2
            ],
            "bo": "DOUBLE"
          },
          {
            "atomIds": [
              5,
              4
            ],
            "bo": "SINGLE"
          },
          {
            "atomIds": [
              6,
              4
            ],
            "bo": "SINGLE"
          },
          {
            "atomIds": [
              6,
              8
            ],
            "bo": "DOUBLE"
          },
          {
            "atomIds": [
              7,
              6
            ],
            "bo": "SINGLE"
          },
          {
            "atomIds": [
              8,
              0
            ],
            "bo": "SINGLE"
          },
          {
            "atomIds": [
              0,
              1
            ],
            "bo": "DOUBLE"
          }
        ]
      },
      "vertexId": 1183517,
      "buildingBlockId": 63,
      "buildingBlockType": "FRAGMENT",
      "isRCV": false,
      "properties": {
        "ATTACHMENT_POINTS": "1#MPyridine:1:SINGLE:-0.0098%0.0049%0.4680 2#LPyridineAlpha:0:SINGLE:1.7498%-1.5426%-1.2670 9#LPyridineAlpha:0:SINGLE:-1.6240%1.6945%-1.2840 ",
        "OLDVERTEXID": 202
      },
      "uniquefyingPropertyKeys": [],
      "allowedMutationTypes": [
        "DELETE",
        "EXTEND",
        "CHANGEBRANCH",
        "CHANGELINK",
        "ADDLINK",
        "DELETELINK",
        "DELETECHAIN"
      ],
      "vertexType": "MolecularFragment"
    },
    {
      "lstAPs": [
        {
          "id": 2089626,
          "atomPositionNumber": 0,
          "atomPositionNumberInMol": -1,
          "apClass": {
            "rule": "ATplus",
            "subClass": 0,
            "bndTyp": "ANY"
          },
          "dirVec": {
            "x": 1.7498113878580424,
            "y": -1.5425521902462944,
            "z": -1.2670236023275012
          }
        }
      ],
      "lstSymAPs": [],
      "mol": {
        "atoms": [
          {
            "elSymbol": "ATP",
            "p3d": {
              "x": 1.7628208697291199,
              "y": -1.552524462044315,
              "z": -1.2539095954404926
            }
          }
        ],
        "bonds": []
      },
      "vertexId": 1183518,
      "buildingBlockId": 78,
      "buildingBlockType": "FRAGMENT",
      "isRCV": true,
      "properties": {
        "ATTACHMENT_POINTS": "1#ATplus:0:ANY:1.7498%-1.5426%-1.2670 ",
        "OLDVERTEXID": 203
      },
      "uniquefyingPropertyKeys": [],
      "allowedMutationTypes": [
        "DELETE",
        "EXTEND",
        "CHANGEBRANCH",
        "CHANGELINK",
        "ADDLINK",
        "DELETELINK",
        "DELETECHAIN"
      ],
      "vertexType": "MolecularFragment"
    },
    {
      "lstAPs": [
        {
          "id": 2089627,
          "atomPositionNumber": 0,
          "atomPositionNumberInMol": -1,
          "apClass": {
            "rule": "ATplus",
            "subClass": 0,
            "bndTyp": "ANY"
          },
          "dirVec": {
            "x": -1.623992272866726,
            "y": 1.694540172820501,
            "z": -1.2840127710767786
          }
        }
      ],
      "lstSymAPs": [],
      "mol": {
        "atoms": [
          {
            "elSymbol": "ATP",
            "p3d": {
              "x": -1.634914608334237,
              "y": 1.7068403796281795,
              "z": -1.2709713945994476
            }
          }
        ],
        "bonds": []
      },
      "vertexId": 1183519,
      "buildingBlockId": 78,
      "buildingBlockType": "FRAGMENT",
      "isRCV": true,
      "properties": {
        "ATTACHMENT_POINTS": "1#ATplus:0:ANY:-1.6240%1.6945%-1.2840 ",
        "OLDVERTEXID": 204
      },
      "uniquefyingPropertyKeys": [],
      "allowedMutationTypes": [
        "DELETE",
        "EXTEND",
        "CHANGEBRANCH",
        "CHANGELINK",
        "ADDLINK",
        "DELETELINK",
        "DELETECHAIN"
      ],
      "vertexType": "MolecularFragment"
    },
    {
      "lstAPs": [
        {
          "id": 2089628,
          "atomPositionNumber": 0,
          "atomPositionNumberInMol": -1,
          "apClass": {
            "rule": "Xlig",
            "subClass": 1,
            "bndTyp": "SINGLE"
          },
          "dirVec": {
            "x": -0.1753,
            "y": 0.0948,
            "z": -0.4464
          }
        },
        {
          "id": 2089629,
          "atomPositionNumber": 0,
          "atomPositionNumberInMol": -1,
          "apClass": {
            "rule": "bridge",
            "subClass": 1,
            "bndTyp": "SINGLE"
          },
          "dirVec": {
            "x": -0.5345,
            "y": 2.7646,
            "z": 0.48009999999999997
          }
        }
      ],
      "lstSymAPs": [],
      "mol": {
        "atoms": [
          {
            "elSymbol": "O",
            "p3d": {
              "x": -0.3534,
              "y": 2.1044,
              "z": -0.7339
            }
          }
        ],
        "bonds": []
      },
      "vertexId": 1183520,
      "buildingBlockId": 72,
      "buildingBlockType": "FRAGMENT",
      "isRCV": false,
      "properties": {
        "ATTACHMENT_POINTS": "1#Xlig:1:SINGLE:-0.1753%0.0948%-0.4464,bridge:1:SINGLE:-0.5345%2.7646%0.4801 ",
        "OLDVERTEXID": 703
      },
      "uniquefyingPropertyKeys": [],
      "allowedMutationTypes": [
        "DELETE",
        "EXTEND",
        "CHANGEBRANCH",
        "CHANGELINK",
        "ADDLINK",
        "DELETELINK",
        "DELETECHAIN"
      ],
      "vertexType": "MolecularFragment"
    },
    {
      "lstAPs": [
        {
          "id": 2089630,
          "atomPositionNumber": 0,
          "atomPositionNumberInMol": -1,
          "apClass": {
            "rule": "Xlig",
            "subClass": 1,
            "bndTyp": "SINGLE"
          },
          "dirVec": {
            "x": -0.1753,
            "y": 0.0948,
            "z": -0.4464
          }
        },
        {
          "id": 2089631,
          "atomPositionNumber": 0,
          "atomPositionNumberInMol": -1,
          "apClass": {
            "rule": "bridge",
            "subClass": 1,
            "bndTyp": "SINGLE"
          },
          "dirVec": {
            "x": -0.5345,
            "y": 2.7646,
            "z": 0.48009999999999997
          }
        }
      ],
      "lstSymAPs": [],
      "mol": {
        "atoms": [
          {
            "elSymbol": "O",
            "p3d": {
              "x": -0.3534,
              "y": 2.1044,
              "z": -0.7339
            }
          }
        ],
        "bonds": []
      },
      "vertexId": 1183521,
      "buildingBlockId": 72,
      "buildingBlockType": "FRAGMENT",
      "isRCV": false,
      "properties": {
        "ATTACHMENT_POINTS": "1#Xlig:1:SINGLE:-0.1753%0.0948%-0.4464,bridge:1:SINGLE:-0.5345%2.7646%0.4801 ",
        "OLDVERTEXID": 697
      },
      "uniquefyingPropertyKeys": [],
      "allowedMutationTypes": [
        "DELETE",
        "EXTEND",
        "CHANGEBRANCH",
        "CHANGELINK",
        "ADDLINK",
        "DELETELINK",
        "DELETECHAIN"
      ],
      "vertexType": "MolecularFragment"
    },
    {
      "lstAPs": [
        {
          "id": 2089632,
          "atomPositionNumber": 0,
          "atomPositionNumberInMol": -1,
          "apClass": {
            "rule": "bridge",
            "subClass": 0,
            "bndTyp": "SINGLE"
          },
          "dirVec": {
            "x": 1.9789000000000003,
            "y": 0.17000000000000004,
            "z": 0.0
          }
        },
        {
          "id": 2089633,
          "atomPositionNumber": 1,
          "atomPositionNumberInMol": -1,
          "apClass": {
            "rule": "bridge",
            "subClass": 0,
            "bndTyp": "SINGLE"
          },
          "dirVec": {
            "x": -0.3006,
            "y": -1.4852,
            "z": 0.0
          }
        },
        {
          "id": 2089634,
          "atomPositionNumber": 1,
          "atomPositionNumberInMol": -1,
          "apClass": {
            "rule": "SubBridge",
            "subClass": 0,
            "bndTyp": "SINGLE"
          },
          "dirVec": {
            "x": -1.8343,
            "y": 0.6268,
            "z": 0.0
          }
        }
      ],
      "lstSymAPs": [],
      "mol": {
        "atoms": [
          {
            "elSymbol": "C",
            "p3d": {
              "x": 0.6023,
              "y": 0.7833,
              "z": 0.0
            }
          },
          {
            "elSymbol": "C",
            "p3d": {
              "x": -0.4578,
              "y": 0.0135,
              "z": 0.0
            }
          },
          {
            "elSymbol": "H",
            "p3d": {
              "x": 0.4897,
              "y": 1.8574,
              "z": 0.0
            }
          }
        ],
        "bonds": [
          {
            "atomIds": [
              0,
              1
            ],
            "bo": "DOUBLE"
          },
          {
            "atomIds": [
              0,
              2
            ],
            "bo": "SINGLE"
          }
        ]
      },
      "vertexId": 1183522,
      "buildingBlockId": 71,
      "buildingBlockType": "FRAGMENT",
      "isRCV": false,
      "properties": {
        "ATTACHMENT_POINTS": "1#bridge:0:SINGLE:1.9789%0.1700%0.0000 2#bridge:0:SINGLE:-0.3006%-1.4852%0.0000,SubBridge:0:SINGLE:-1.8343%0.6268%0.0000 ",
        "OLDVERTEXID": 20886
      },
      "uniquefyingPropertyKeys": [],
      "allowedMutationTypes": [
        "DELETE",
        "EXTEND",
        "CHANGEBRANCH",
        "CHANGELINK",
        "ADDLINK",
        "DELETELINK",
        "DELETECHAIN"
      ],
      "vertexType": "MolecularFragment"
    },
    {
      "lstAPs": [
        {
          "id": 2089635,
          "atomPositionNumber": 0,
          "atomPositionNumberInMol": -1,
          "apClass": {
            "rule": "bridge",
            "subClass": 0,
            "bndTyp": "SINGLE"
          },
          "dirVec": {
            "x": 1.9789000000000003,
            "y": 0.17000000000000004,
            "z": 0.0
          }
        },
        {
          "id": 2089636,
          "atomPositionNumber": 1,
          "atomPositionNumberInMol": -1,
          "apClass": {
            "rule": "bridge",
            "subClass": 0,
            "bndTyp": "SINGLE"
          },
          "dirVec": {
            "x": -0.3006,
            "y": -1.4852,
            "z": 0.0
          }
        },
        {
          "id": 2089637,
          "atomPositionNumber": 1,
          "atomPositionNumberInMol": -1,
          "apClass": {
            "rule": "SubBridge",
            "subClass": 0,
            "bndTyp": "SINGLE"
          },
          "dirVec": {
            "x": -1.8343,
            "y": 0.6268,
            "z": 0.0
          }
        }
      ],
      "lstSymAPs": [],
      "mol": {
        "atoms": [
          {
            "elSymbol": "C",
            "p3d": {
              "x": 0.6023,
              "y": 0.7833,
              "z": 0.0
            }
          },
          {
            "elSymbol": "C",
            "p3d": {
              "x": -0.4578,
              "y": 0.0135,
              "z": 0.0
            }
          },
          {
            "elSymbol": "H",
            "p3d": {
              "x": 0.4897,
              "y": 1.8574,
              "z": 0.0
            }
          }
        ],
        "bonds": [
          {
            "atomIds": [
              0,
              1
            ],
            "bo": "DOUBLE"
          },
          {
            "atomIds": [
              0,
              2
            ],
            "bo": "SINGLE"
          }
        ]
      },
      "vertexId": 1183523,
      "buildingBlockId": 71,
      "buildingBlockType": "FRAGMENT",
      "isRCV": false,
      "properties": {
        "ATTACHMENT_POINTS": "1#bridge:0:SINGLE:1.9789%0.1700%0.0000 2#bridge:0:SINGLE:-0.3006%-1.4852%0.0000,SubBridge:0:SINGLE:-1.8343%0.6268%0.0000 ",
        "OLDVERTEXID": 21123
      },
      "uniquefyingPropertyKeys": [],
      "allowedMutationTypes": [
        "DELETE",
        "EXTEND",
        "CHANGEBRANCH",
        "CHANGELINK",
        "ADDLINK",
        "DELETELINK",
        "DELETECHAIN"
      ],
      "vertexType": "MolecularFragment"
    },
    {
      "lstAPs": [
        {
          "id": 2089638,
          "atomPositionNumber": 0,
          "atomPositionNumberInMol": -1,
          "apClass": {
            "rule": "ATminus",
            "subClass": 0,
            "bndTyp": "ANY"
          },
          "dirVec": {
            "x": 0.0109,
            "y": -0.0071,
            "z": 0.0026
          }
        }
      ],
      "lstSymAPs": [],
      "mol": {
        "atoms": [
          {
            "elSymbol": "ATM",
            "p3d": {
              "x": -0.0096,
              "y": 0.0045,
              "z": -0.0011
            }
          }
        ],
        "bonds": []
      },
      "vertexId": 1183524,
      "buildingBlockId": 79,
      "buildingBlockType": "FRAGMENT",
      "isRCV": true,
      "properties": {
        "ATTACHMENT_POINTS": "1#ATminus:0:ANY:0.0109%-0.0071%0.0026 ",
        "OLDVERTEXID": 1182605
      },
      "uniquefyingPropertyKeys": [],
      "allowedMutationTypes": [
        "DELETE",
        "EXTEND",
        "CHANGEBRANCH",
        "CHANGELINK",
        "ADDLINK",
        "DELETELINK",
        "DELETECHAIN"
      ],
      "vertexType": "MolecularFragment"
    },
    {
      "lstAPs": [
        {
          "id": 2089639,
          "atomPositionNumber": 1,
          "atomPositionNumberInMol": -1,
          "apClass": {
            "rule": "SubRM",
            "subClass": 1,
            "bndTyp": "SINGLE"
          },
          "dirVec": {
            "x": 0.2868,
            "y": 0.385,
            "z": -0.643
          }
        }
      ],
      "lstSymAPs": [],
      "mol": {
        "atoms": [
          {
            "elSymbol": "C",
            "p3d": {
              "x": 1.141,
              "y": 1.0262,
              "z": 1.6347
            }
          },
          {
            "elSymbol": "C",
            "p3d": {
              "x": 0.3967,
              "y": -0.0479,
              "z": 0.8227
            }
          },
          {
            "elSymbol": "C",
            "p3d": {
              "x": 1.1459,
              "y": -1.371,
              "z": 0.9201
            }
          },
          {
            "elSymbol": "H",
            "p3d": {
              "x": 2.1461,
              "y": -1.2583,
              "z": 0.4976
            }
          },
          {
            "elSymbol": "H",
            "p3d": {
              "x": 0.6013,
              "y": -2.1408,
              "z": 0.3461
            }
          },
          {
            "elSymbol": "H",
            "p3d": {
              "x": 1.2113,
              "y": -1.6946,
              "z": 1.9559
            }
          },
          {
            "elSymbol": "H",
            "p3d": {
              "x": 2.1541,
              "y": 1.1435,
              "z": 1.2119
            }
          },
          {
            "elSymbol": "H",
            "p3d": {
              "x": 0.6143,
              "y": 1.976,
              "z": 1.5626
            }
          },
          {
            "elSymbol": "H",
            "p3d": {
              "x": 1.2058,
              "y": 0.7088,
              "z": 2.6868
            }
          },
          {
            "elSymbol": "H",
            "p3d": {
              "x": -0.6215,
              "y": -0.1789,
              "z": 1.2377
            }
          }
        ],
        "bonds": [
          {
            "atomIds": [
              0,
              1
            ],
            "bo": "SINGLE"
          },
          {
            "atomIds": [
              1,
              2
            ],
            "bo": "SINGLE"
          },
          {
            "atomIds": [
              2,
              3
            ],
            "bo": "SINGLE"
          },
          {
            "atomIds": [
              2,
              4
            ],
            "bo": "SINGLE"
          },
          {
            "atomIds": [
              2,
              5
            ],
            "bo": "SINGLE"
          },
          {
            "atomIds": [
              0,
              6
            ],
            "bo": "SINGLE"
          },
          {
            "atomIds": [
              0,
              7
            ],
            "bo": "SINGLE"
          },
          {
            "atomIds": [
              0,
              8
            ],
            "bo": "SINGLE"
          },
          {
            "atomIds": [
              1,
              9
            ],
            "bo": "SINGLE"
          }
        ]
      },
      "vertexId": 1183525,
      "buildingBlockId": 25,
      "buildingBlockType": "FRAGMENT",
      "isRCV": false,
      "properties": {
        "ATTACHMENT_POINTS": "2#SubRM:1:SINGLE:0.2868%0.3850%-0.6430 ",
        "OLDVERTEXID": 1182611
      },
      "uniquefyingPropertyKeys": [],
      "allowedMutationTypes": [
        "DELETE",
        "EXTEND",
        "CHANGEBRANCH",
        "CHANGELINK",
        "ADDLINK",
        "DELETELINK",
        "DELETECHAIN"
      ],
      "vertexType": "MolecularFragment"
    },
    {
      "lstAPs": [
        {
          "id": 2089640,
          "atomPositionNumber": 1,
          "atomPositionNumberInMol": -1,
          "apClass": {
            "rule": "SubRM",
            "subClass": 1,
            "bndTyp": "SINGLE"
          },
          "dirVec": {
            "x": 0.2868,
            "y": 0.385,
            "z": -0.643
          }
        }
      ],
      "lstSymAPs": [],
      "mol": {
        "atoms": [
          {
            "elSymbol": "C",
            "p3d": {
              "x": 1.141,
              "y": 1.0262,
              "z": 1.6347
            }
          },
          {
            "elSymbol": "C",
            "p3d": {
              "x": 0.3967,
              "y": -0.0479,
              "z": 0.8227
            }
          },
          {
            "elSymbol": "C",
            "p3d": {
              "x": 1.1459,
              "y": -1.371,
              "z": 0.9201
            }
          },
          {
            "elSymbol": "H",
            "p3d": {
              "x": 2.1461,
              "y": -1.2583,
              "z": 0.4976
            }
          },
          {
            "elSymbol": "H",
            "p3d": {
              "x": 0.6013,
              "y": -2.1408,
              "z": 0.3461
            }
          },
          {
            "elSymbol": "H",
            "p3d": {
              "x": 1.2113,
              "y": -1.6946,
              "z": 1.9559
            }
          },
          {
            "elSymbol": "H",
            "p3d": {
              "x": 2.1541,
              "y": 1.1435,
              "z": 1.2119
            }
          },
          {
            "elSymbol": "H",
            "p3d": {
              "x": 0.6143,
              "y": 1.976,
              "z": 1.5626
            }
          },
          {
            "elSymbol": "H",
            "p3d": {
              "x": 1.2058,
              "y": 0.7088,
              "z": 2.6868
            }
          },
          {
            "elSymbol": "H",
            "p3d": {
              "x": -0.6215,
              "y": -0.1789,
              "z": 1.2377
            }
          }
        ],
        "bonds": [
          {
            "atomIds": [
              0,
              1
            ],
            "bo": "SINGLE"
          },
          {
            "atomIds": [
              1,
              2
            ],
            "bo": "SINGLE"
          },
          {
            "atomIds": [
              2,
              3
            ],
            "bo": "SINGLE"
          },
          {
            "atomIds": [
              2,
              4
            ],
            "bo": "SINGLE"
          },
          {
            "atomIds": [
              2,
              5
            ],
            "bo": "SINGLE"
          },
          {
            "atomIds": [
              0,
              6
            ],
            "bo": "SINGLE"
          },
          {
            "atomIds": [
              0,
              7
            ],
            "bo": "SINGLE"
          },
          {
            "atomIds": [
              0,
              8
            ],
            "bo": "SINGLE"
          },
          {
            "atomIds": [
              1,
              9
            ],
            "bo": "SINGLE"
          }
        ]
      },
      "vertexId": 1183526,
      "buildingBlockId": 25,
      "buildingBlockType": "FRAGMENT",
      "isRCV": false,
      "properties": {
        "ATTACHMENT_POINTS": "2#SubRM:1:SINGLE:0.2868%0.3850%-0.6430 ",
        "OLDVERTEXID": 1183115
      },
      "uniquefyingPropertyKeys": [],
      "allowedMutationTypes": [
        "DELETE",
        "EXTEND",
        "CHANGEBRANCH",
        "CHANGELINK",
        "ADDLINK",
        "DELETELINK",
        "DELETECHAIN"
      ],
      "vertexType": "MolecularFragment"
    },
    {
      "lstAPs": [
        {
          "id": 2089641,
          "atomPositionNumber": 0,
          "atomPositionNumberInMol": -1,
          "apClass": {
            "rule": "ATminus",
            "subClass": 0,
            "bndTyp": "ANY"
          },
          "dirVec": {
            "x": 0.0109,
            "y": -0.0071,
            "z": 0.0026
          }
        }
      ],
      "lstSymAPs": [],
      "mol": {
        "atoms": [
          {
            "elSymbol": "ATM",
            "p3d": {
              "x": -0.0096,
              "y": 0.0045,
              "z": -0.0011
            }
          }
        ],
        "bonds": []
      },
      "vertexId": 1183527,
      "buildingBlockId": 79,
      "buildingBlockType": "FRAGMENT",
      "isRCV": true,
      "properties": {
        "ATTACHMENT_POINTS": "1#ATminus:0:ANY:0.0109%-0.0071%0.0026 ",
        "OLDVERTEXID": 1183114
      },
      "uniquefyingPropertyKeys": [],
      "allowedMutationTypes": [
        "DELETE",
        "EXTEND",
        "CHANGEBRANCH",
        "CHANGELINK",
        "ADDLINK",
        "DELETELINK",
        "DELETECHAIN"
      ],
      "vertexType": "MolecularFragment"
    }
  ],
  "gEdges": [
    {
      "srcAPID": 2089622,
      "trgAPID": 2089623,
      "bondType": "SINGLE"
    },
    {
      "srcAPID": 2089624,
      "trgAPID": 2089626,
      "bondType": "SINGLE"
    },
    {
      "srcAPID": 2089625,
      "trgAPID": 2089627,
      "bondType": "SINGLE"
    },
    {
      "srcAPID": 2089621,
      "trgAPID": 2089628,
      "bondType": "SINGLE"
    },
    {
      "srcAPID": 2089620,
      "trgAPID": 2089630,
      "bondType": "SINGLE"
    },
    {
      "srcAPID": 2089629,
      "trgAPID": 2089633,
      "bondType": "SINGLE"
    },
    {
      "srcAPID": 2089631,
      "trgAPID": 2089636,
      "bondType": "SINGLE"
    },
    {
      "srcAPID": 2089632,
      "trgAPID": 2089638,
      "bondType": "SINGLE"
    },
    {
      "srcAPID": 2089634,
      "trgAPID": 2089639,
      "bondType": "SINGLE"
    },
    {
      "srcAPID": 2089637,
      "trgAPID": 2089640,
      "bondType": "SINGLE"
    },
    {
      "srcAPID": 2089635,
      "trgAPID": 2089641,
      "bondType": "SINGLE"
    }
  ],
  "gRings": [
    {
      "vertices": [
        1183518,
        1183517,
        1183516,
        1183521,
        1183523,
        1183527
      ],
      "bndTyp": "SINGLE"
    },
    {
      "vertices": [
        1183519,
        1183517,
        1183516,
        1183520,
        1183522,
        1183524
      ],
      "bndTyp": "SINGLE"
    }
  ],
  "symVertices": [
    {
      "symIds": [
        1183518,
        1183519
      ]
    },
    {
      "symIds": [
        1183520,
        1183521
      ]
    },
    {
      "symIds": [
        1183522,
        1183523
      ]
    },
    {
      "symIds": [
        1183524,
        1183527
      ]
    },
    {
      "symIds": [
        1183525,
        1183526
      ]
    }
  ]
}

> <SMILES>
[Pt]12(C#O)[N]=3C(=C(C(=C(C3C(=C(O1)C(C([H])([H])[H])(C([H])([H])[H])[H])[H])[H])[H])[H])C(=C(O2)C(C([H])([H])[H])(C([H])([H])[H])[H])[H]

$$$$
