M10007370
  CDK     05042201033D

 33 35  0  0  0  0  0  0  0  0999 V2000
    1.9383   -0.2629   -0.1857 Pt  0  0  0  0  0  0  0  0  0  0  0  0
    3.8656   -0.3087   -0.3627 C   0  0  0  0  0  0  0  0  0  0  0  0
    5.0021   -0.3318   -0.4762 O   0  0  0  0  0  0  0  0  0  0  0  0
   -0.8470   -0.8560    0.8600 N   0  0  2  0  0  0  0  0  0  0  0  0
   -0.6668    0.6025   -1.0003 N   0  0  1  0  0  0  0  0  0  0  0  0
   -0.0924   -0.1943   -0.0495 C   0  0  0  0  0  0  0  0  0  0  0  0
   -2.3384   -0.7238    0.8646 C   0  0  0  0  0  0  0  0  0  0  0  0
   -2.7211   -0.8466    1.9028 H   0  0  0  0  0  0  0  0  0  0  0  0
   -2.7691   -1.5518    0.2527 H   0  0  0  0  0  0  0  0  0  0  0  0
   -2.7618    0.6398    0.3080 C   0  0  0  0  0  0  0  0  0  0  0  0
   -2.4651    1.4503    1.0093 H   0  0  0  0  0  0  0  0  0  0  0  0
   -3.8661    0.6955    0.2350 H   0  0  0  0  0  0  0  0  0  0  0  0
   -2.1275    0.8746   -1.0673 C   0  0  0  0  0  0  0  0  0  0  0  0
   -2.5840    0.2069   -1.8350 H   0  0  0  0  0  0  0  0  0  0  0  0
   -2.2947    1.9252   -1.3971 H   0  0  0  0  0  0  0  0  0  0  0  0
    2.1516    1.7384    0.2392 O   0  0  0  0  0  0  0  0  0  0  0  0
    1.2602    3.7272    0.4795 O   0  0  0  0  0  0  0  0  0  0  0  0
    1.3691    2.7247   -0.1933 C   0  0  0  0  0  0  0  0  0  0  0  0
    0.2248    1.2433   -2.0106 C   0  0  0  0  0  0  0  0  0  0  0  0
    0.7119    2.6181   -1.5636 C   0  0  0  0  0  0  0  0  0  0  0  0
   -0.3342    1.3340   -2.9714 H   0  0  0  0  0  0  0  0  0  0  0  0
    1.0955    0.5601   -2.2269 H   0  0  0  0  0  0  0  0  0  0  0  0
    1.4446    3.0089   -2.3067 H   0  0  0  0  0  0  0  0  0  0  0  0
   -0.1242    3.3528   -1.5801 H   0  0  0  0  0  0  0  0  0  0  0  0
    1.8464   -2.2757   -0.5736 O   0  0  0  0  0  0  0  0  0  0  0  0
    1.0556   -4.1658    0.2724 O   0  0  0  0  0  0  0  0  0  0  0  0
    1.3245   -2.9984    0.4259 C   0  0  0  0  0  0  0  0  0  0  0  0
   -0.3068   -1.7577    1.9251 C   0  0  0  0  0  0  0  0  0  0  0  0
    1.1284   -2.2342    1.7349 C   0  0  0  0  0  0  0  0  0  0  0  0
   -0.9786   -2.6526    1.9769 H   0  0  0  0  0  0  0  0  0  0  0  0
   -0.3845   -1.2159    2.9007 H   0  0  0  0  0  0  0  0  0  0  0  0
    1.8612   -1.3961    1.8428 H   0  0  0  0  0  0  0  0  0  0  0  0
    1.3825   -2.9302    2.5701 H   0  0  0  0  0  0  0  0  0  0  0  0
  2  3  3  0  0  0  0
  1  2  1  0  0  0  0
  4  6  1  0  0  0  0
  5  6  1  0  0  0  0
  7  4  1  0  0  0  0
  8  7  1  0  0  0  0
  9  7  1  0  0  0  0
 10  7  1  0  0  0  0
 11 10  1  0  0  0  0
 12 10  1  0  0  0  0
 13  5  1  0  0  0  0
 14 13  1  0  0  0  0
 15 13  1  0  0  0  0
 10 13  1  0  0  0  0
  1  6  1  0  0  0  0
 17 18  2  0  0  0  0
 18 16  1  0  0  0  0
  1 16  1  0  0  0  0
 19 20  1  0  0  0  0
 19 21  1  0  0  0  0
 19 22  1  0  0  0  0
 20 23  1  0  0  0  0
 20 24  1  0  0  0  0
 18 20  1  0  0  0  0
 26 27  2  0  0  0  0
 27 25  1  0  0  0  0
  1 25  1  0  0  0  0
 28 29  1  0  0  0  0
 28 30  1  0  0  0  0
 28 31  1  0  0  0  0
 29 32  1  0  0  0  0
 29 33  1  0  0  0  0
 27 29  1  0  0  0  0
  4 28  1  0  0  0  0
  5 19  1  0  0  0  0
M  END
> <PM6_ENERGY>
-654.182

> <UID>
IEXSIDOWGGKSNU-XBYGDIDONA-L

> <FITNESS>
1.14239

> <GCODE>
12892

> <GraphENC>
12892 693758_1_0,693759_57_1,693760_79_1,693761_79_1,693762_76_1,693763_76_1,693764_66_1,693765_66_1,693766_80_1,693767_80_1, 693758_2_693759_2_SINGLE_scaff:0_M6HPyrimidinylidene:1,693759_0_693760_0_SINGLE_L6HPyrimidinylideneSubN:0_ATplus:0,693759_1_693761_0_SINGLE_L6HPyrimidinylideneSubN:0_ATplus:0,693758_1_693762_0_SINGLE_Xlig:0_Xlig:1,693758_0_693763_0_SINGLE_Xlig:0_Xlig:1,693762_1_693764_0_SINGLE_bridge:1_bridge:0,693763_1_693765_0_SINGLE_bridge:1_bridge:0,693765_1_693766_0_SINGLE_bridge:0_ATminus:0,693764_1_693767_0_SINGLE_bridge:0_ATminus:0, DENOPTIMRing [vertices=[693760_79_1, 693759_57_1, 693758_1_0, 693763_76_1, 693765_66_1, 693766_80_1]] DENOPTIMRing [vertices=[693761_79_1, 693759_57_1, 693758_1_0, 693762_76_1, 693764_66_1, 693767_80_1]] SymmetricSet [symIds=[693760, 693761]] SymmetricSet [symIds=[693762, 693763]] SymmetricSet [symIds=[693764, 693765]] SymmetricSet [symIds=[693766, 693767]] 

> <GraphJson>
{
  "graphId": 12892,
  "gVertices": [
    {
      "lstAPs": [
        {
          "id": 1214608,
          "atomPositionNumber": 0,
          "atomPositionNumberInMol": -1,
          "apClass": {
            "rule": "Xlig",
            "subClass": 0,
            "bndTyp": "SINGLE"
          },
          "dirVec": {
            "x": -2.3339,
            "y": -0.0087,
            "z": 0.8172
          }
        },
        {
          "id": 1214609,
          "atomPositionNumber": 0,
          "atomPositionNumberInMol": -1,
          "apClass": {
            "rule": "Xlig",
            "subClass": 0,
            "bndTyp": "SINGLE"
          },
          "dirVec": {
            "x": 2.336,
            "y": -5.0E-4,
            "z": 0.829
          }
        },
        {
          "id": 1214610,
          "atomPositionNumber": 0,
          "atomPositionNumberInMol": -1,
          "apClass": {
            "rule": "scaff",
            "subClass": 0,
            "bndTyp": "SINGLE"
          },
          "dirVec": {
            "x": -0.0095,
            "y": 0.0046,
            "z": -1.7113
          }
        }
      ],
      "lstSymAPs": [
        {
          "symIds": [
            0,
            1
          ]
        }
      ],
      "mol": {
        "atoms": [
          {
            "elSymbol": "Pt",
            "p3d": {
              "x": -0.0098,
              "y": 0.0049,
              "z": 0.6289
            }
          },
          {
            "elSymbol": "C",
            "p3d": {
              "x": -6.0E-4,
              "y": 0.0016,
              "z": 2.5609
            }
          },
          {
            "elSymbol": "O",
            "p3d": {
              "x": 0.0025,
              "y": -0.0041,
              "z": 3.6974
            }
          },
          {
            "elSymbol": "Du",
            "p3d": {
              "x": -0.007,
              "y": 1.0013,
              "z": 0.6372
            }
          },
          {
            "elSymbol": "Du",
            "p3d": {
              "x": -0.0014,
              "y": 0.9902,
              "z": 2.5698
            }
          }
        ],
        "bonds": [
          {
            "atomIds": [
              1,
              2
            ],
            "bo": "TRIPLE"
          },
          {
            "atomIds": [
              0,
              1
            ],
            "bo": "SINGLE"
          },
          {
            "atomIds": [
              3,
              0
            ],
            "bo": "SINGLE"
          },
          {
            "atomIds": [
              4,
              1
            ],
            "bo": "SINGLE"
          }
        ]
      },
      "vertexId": 693758,
      "buildingBlockId": 0,
      "buildingBlockType": "SCAFFOLD",
      "isRCV": false,
      "properties": {
        "ATTACHMENT_POINTS": "1#Xlig:0:SINGLE:-2.3339%-0.0087%0.8172,Xlig:0:SINGLE:2.3360%-0.0005%0.8290,scaff:0:SINGLE:-0.0095%0.0046%-1.7113 ",
        "OLDVERTEXID": 177
      },
      "uniquefyingPropertyKeys": [],
      "allowedMutationTypes": [
        "DELETE",
        "EXTEND",
        "CHANGEBRANCH",
        "CHANGELINK",
        "ADDLINK",
        "DELETELINK",
        "DELETECHAIN"
      ],
      "vertexType": "MolecularFragment"
    },
    {
      "lstAPs": [
        {
          "id": 1214611,
          "atomPositionNumber": 0,
          "atomPositionNumberInMol": -1,
          "apClass": {
            "rule": "L6HPyrimidinylideneSubN",
            "subClass": 0,
            "bndTyp": "SINGLE"
          },
          "dirVec": {
            "x": 1.3883407152187113,
            "y": -1.9305708373750663,
            "z": -1.4728451519136216
          }
        },
        {
          "id": 1214612,
          "atomPositionNumber": 1,
          "atomPositionNumberInMol": -1,
          "apClass": {
            "rule": "L6HPyrimidinylideneSubN",
            "subClass": 0,
            "bndTyp": "SINGLE"
          },
          "dirVec": {
            "x": -1.4116930996412638,
            "y": 1.9634648640961083,
            "z": -1.5026726779359287
          }
        },
        {
          "id": 1214613,
          "atomPositionNumber": 2,
          "atomPositionNumberInMol": -1,
          "apClass": {
            "rule": "M6HPyrimidinylidene",
            "subClass": 1,
            "bndTyp": "SINGLE"
          },
          "dirVec": {
            "x": -0.009774765091213413,
            "y": 0.004874765091213455,
            "z": 0.43205088819242465
          }
        }
      ],
      "lstSymAPs": [
        {
          "symIds": [
            0,
            1
          ]
        }
      ],
      "mol": {
        "atoms": [
          {
            "elSymbol": "N",
            "p3d": {
              "x": 0.652072936281195,
              "y": -0.9267391890325968,
              "z": -2.199970333353834
            }
          },
          {
            "elSymbol": "N",
            "p3d": {
              "x": -0.637827129665478,
              "y": 0.9586684358478516,
              "z": -2.207351248841122
            }
          },
          {
            "elSymbol": "C",
            "p3d": {
              "x": -0.009525234908786586,
              "y": 0.004625234908786545,
              "z": -1.514450888192425
            }
          },
          {
            "elSymbol": "C",
            "p3d": {
              "x": 0.7706099453711337,
              "y": -0.965744069636831,
              "z": -3.6731974905719795
            }
          },
          {
            "elSymbol": "H",
            "p3d": {
              "x": 0.8307372333270738,
              "y": -1.99628974262755,
              "z": -4.008849937491664
            }
          },
          {
            "elSymbol": "H",
            "p3d": {
              "x": 1.6820747151742137,
              "y": -0.4467304034846947,
              "z": -3.993204283867276
            }
          },
          {
            "elSymbol": "C",
            "p3d": {
              "x": -0.4361532308738043,
              "y": -0.3026623235442819,
              "z": -4.271360331659661
            }
          },
          {
            "elSymbol": "H",
            "p3d": {
              "x": -1.3129075687927156,
              "y": -0.9228190365300648,
              "z": -4.107831428162321
            }
          },
          {
            "elSymbol": "H",
            "p3d": {
              "x": -0.2961873164001987,
              "y": -0.20869395263456175,
              "z": -5.354131068267435
            }
          },
          {
            "elSymbol": "C",
            "p3d": {
              "x": -0.6377270980980322,
              "y": 1.061002251967289,
              "z": -3.668972581496101
            }
          },
          {
            "elSymbol": "H",
            "p3d": {
              "x": 0.15771643881518566,
              "y": 1.7178324152794513,
              "z": -4.003843311997157
            }
          },
          {
            "elSymbol": "H",
            "p3d": {
              "x": -1.5761233211679573,
              "y": 1.4843624537484181,
              "z": -4.01173595187856
            }
          }
        ],
        "bonds": [
          {
            "atomIds": [
              0,
              2
            ],
            "bo": "SINGLE"
          },
          {
            "atomIds": [
              1,
              2
            ],
            "bo": "SINGLE"
          },
          {
            "atomIds": [
              3,
              0
            ],
            "bo": "SINGLE"
          },
          {
            "atomIds": [
              4,
              3
            ],
            "bo": "SINGLE"
          },
          {
            "atomIds": [
              5,
              3
            ],
            "bo": "SINGLE"
          },
          {
            "atomIds": [
              6,
              3
            ],
            "bo": "SINGLE"
          },
          {
            "atomIds": [
              7,
              6
            ],
            "bo": "SINGLE"
          },
          {
            "atomIds": [
              8,
              6
            ],
            "bo": "SINGLE"
          },
          {
            "atomIds": [
              9,
              1
            ],
            "bo": "SINGLE"
          },
          {
            "atomIds": [
              10,
              9
            ],
            "bo": "SINGLE"
          },
          {
            "atomIds": [
              11,
              9
            ],
            "bo": "SINGLE"
          },
          {
            "atomIds": [
              6,
              9
            ],
            "bo": "SINGLE"
          }
        ]
      },
      "vertexId": 693759,
      "buildingBlockId": 56,
      "buildingBlockType": "FRAGMENT",
      "isRCV": false,
      "properties": {
        "ATTACHMENT_POINTS": "1#L6HPyrimidinylideneSubN:0:SINGLE:1.3883%-1.9306%-1.4728 2#L6HPyrimidinylideneSubN:0:SINGLE:-1.4117%1.9635%-1.5027 3#M6HPyrimidinylidene:1:SINGLE:-0.0098%0.0049%0.4321 ",
        "OLDVERTEXID": 178
      },
      "uniquefyingPropertyKeys": [],
      "allowedMutationTypes": [
        "DELETE",
        "EXTEND",
        "CHANGEBRANCH",
        "CHANGELINK",
        "ADDLINK",
        "DELETELINK",
        "DELETECHAIN"
      ],
      "vertexType": "MolecularFragment"
    },
    {
      "lstAPs": [
        {
          "id": 1214614,
          "atomPositionNumber": 0,
          "atomPositionNumberInMol": -1,
          "apClass": {
            "rule": "ATplus",
            "subClass": 0,
            "bndTyp": "ANY"
          },
          "dirVec": {
            "x": 1.3883407152187113,
            "y": -1.930570837375066,
            "z": -1.4728451519136216
          }
        }
      ],
      "lstSymAPs": [],
      "mol": {
        "atoms": [
          {
            "elSymbol": "ATP",
            "p3d": {
              "x": 1.3990613300044117,
              "y": -1.9451873841253586,
              "z": -1.4622576602506672
            }
          }
        ],
        "bonds": []
      },
      "vertexId": 693760,
      "buildingBlockId": 78,
      "buildingBlockType": "FRAGMENT",
      "isRCV": true,
      "properties": {
        "ATTACHMENT_POINTS": "1#ATplus:0:ANY:1.3883%-1.9306%-1.4728 ",
        "OLDVERTEXID": 179
      },
      "uniquefyingPropertyKeys": [],
      "allowedMutationTypes": [
        "DELETE",
        "EXTEND",
        "CHANGEBRANCH",
        "CHANGELINK",
        "ADDLINK",
        "DELETELINK",
        "DELETECHAIN"
      ],
      "vertexType": "MolecularFragment"
    },
    {
      "lstAPs": [
        {
          "id": 1214615,
          "atomPositionNumber": 0,
          "atomPositionNumberInMol": -1,
          "apClass": {
            "rule": "ATplus",
            "subClass": 0,
            "bndTyp": "ANY"
          },
          "dirVec": {
            "x": -1.4116930996412638,
            "y": 1.963464864096108,
            "z": -1.5026726779359287
          }
        }
      ],
      "lstSymAPs": [],
      "mol": {
        "atoms": [
          {
            "elSymbol": "ATP",
            "p3d": {
              "x": -1.422889814938761,
              "y": 1.97800280732598,
              "z": -1.4924770036967328
            }
          }
        ],
        "bonds": []
      },
      "vertexId": 693761,
      "buildingBlockId": 78,
      "buildingBlockType": "FRAGMENT",
      "isRCV": true,
      "properties": {
        "ATTACHMENT_POINTS": "1#ATplus:0:ANY:-1.4117%1.9635%-1.5027 ",
        "OLDVERTEXID": 180
      },
      "uniquefyingPropertyKeys": [],
      "allowedMutationTypes": [
        "DELETE",
        "EXTEND",
        "CHANGEBRANCH",
        "CHANGELINK",
        "ADDLINK",
        "DELETELINK",
        "DELETECHAIN"
      ],
      "vertexType": "MolecularFragment"
    },
    {
      "lstAPs": [
        {
          "id": 1214616,
          "atomPositionNumber": 0,
          "atomPositionNumberInMol": -1,
          "apClass": {
            "rule": "Xlig",
            "subClass": 1,
            "bndTyp": "SINGLE"
          },
          "dirVec": {
            "x": 2.9612,
            "y": 0.482,
            "z": 3.1597
          }
        },
        {
          "id": 1214617,
          "atomPositionNumber": 2,
          "atomPositionNumberInMol": -1,
          "apClass": {
            "rule": "bridge",
            "subClass": 1,
            "bndTyp": "SINGLE"
          },
          "dirVec": {
            "x": 0.31479999999999997,
            "y": 0.7222,
            "z": 2.0817
          }
        }
      ],
      "lstSymAPs": [],
      "mol": {
        "atoms": [
          {
            "elSymbol": "O",
            "p3d": {
              "x": 2.5349,
              "y": 1.3185,
              "z": 1.3621
            }
          },
          {
            "elSymbol": "O",
            "p3d": {
              "x": 0.8537,
              "y": 1.7439,
              "z": 0.0154
            }
          },
          {
            "elSymbol": "C",
            "p3d": {
              "x": 1.2704,
              "y": 1.2787,
              "z": 1.0674
            }
          }
        ],
        "bonds": [
          {
            "atomIds": [
              1,
              2
            ],
            "bo": "DOUBLE"
          },
          {
            "atomIds": [
              2,
              0
            ],
            "bo": "SINGLE"
          }
        ]
      },
      "vertexId": 693762,
      "buildingBlockId": 75,
      "buildingBlockType": "FRAGMENT",
      "isRCV": false,
      "properties": {
        "ATTACHMENT_POINTS": "1#Xlig:1:SINGLE:2.9612%0.4820%3.1597 3#bridge:1:SINGLE:0.3148%0.7222%2.0817 ",
        "OLDVERTEXID": 1788
      },
      "uniquefyingPropertyKeys": [],
      "allowedMutationTypes": [
        "DELETE",
        "EXTEND",
        "CHANGEBRANCH",
        "CHANGELINK",
        "ADDLINK",
        "DELETELINK",
        "DELETECHAIN"
      ],
      "vertexType": "MolecularFragment"
    },
    {
      "lstAPs": [
        {
          "id": 1214618,
          "atomPositionNumber": 0,
          "atomPositionNumberInMol": -1,
          "apClass": {
            "rule": "Xlig",
            "subClass": 1,
            "bndTyp": "SINGLE"
          },
          "dirVec": {
            "x": 2.9612,
            "y": 0.482,
            "z": 3.1597
          }
        },
        {
          "id": 1214619,
          "atomPositionNumber": 2,
          "atomPositionNumberInMol": -1,
          "apClass": {
            "rule": "bridge",
            "subClass": 1,
            "bndTyp": "SINGLE"
          },
          "dirVec": {
            "x": 0.31479999999999997,
            "y": 0.7222,
            "z": 2.0817
          }
        }
      ],
      "lstSymAPs": [],
      "mol": {
        "atoms": [
          {
            "elSymbol": "O",
            "p3d": {
              "x": 2.5349,
              "y": 1.3185,
              "z": 1.3621
            }
          },
          {
            "elSymbol": "O",
            "p3d": {
              "x": 0.8537,
              "y": 1.7439,
              "z": 0.0154
            }
          },
          {
            "elSymbol": "C",
            "p3d": {
              "x": 1.2704,
              "y": 1.2787,
              "z": 1.0674
            }
          }
        ],
        "bonds": [
          {
            "atomIds": [
              1,
              2
            ],
            "bo": "DOUBLE"
          },
          {
            "atomIds": [
              2,
              0
            ],
            "bo": "SINGLE"
          }
        ]
      },
      "vertexId": 693763,
      "buildingBlockId": 75,
      "buildingBlockType": "FRAGMENT",
      "isRCV": false,
      "properties": {
        "ATTACHMENT_POINTS": "1#Xlig:1:SINGLE:2.9612%0.4820%3.1597 3#bridge:1:SINGLE:0.3148%0.7222%2.0817 ",
        "OLDVERTEXID": 1766
      },
      "uniquefyingPropertyKeys": [],
      "allowedMutationTypes": [
        "DELETE",
        "EXTEND",
        "CHANGEBRANCH",
        "CHANGELINK",
        "ADDLINK",
        "DELETELINK",
        "DELETECHAIN"
      ],
      "vertexType": "MolecularFragment"
    },
    {
      "lstAPs": [
        {
          "id": 1214620,
          "atomPositionNumber": 1,
          "atomPositionNumberInMol": -1,
          "apClass": {
            "rule": "bridge",
            "subClass": 0,
            "bndTyp": "SINGLE"
          },
          "dirVec": {
            "x": 0.4112,
            "y": -1.2101,
            "z": -0.19930000000000003
          }
        },
        {
          "id": 1214621,
          "atomPositionNumber": 0,
          "atomPositionNumberInMol": -1,
          "apClass": {
            "rule": "bridge",
            "subClass": 0,
            "bndTyp": "SINGLE"
          },
          "dirVec": {
            "x": 0.41179999999999994,
            "y": 1.21,
            "z": -0.19930000000000003
          }
        }
      ],
      "lstSymAPs": [
        {
          "symIds": [
            0,
            1
          ]
        }
      ],
      "mol": {
        "atoms": [
          {
            "elSymbol": "C",
            "p3d": {
              "x": -1.0414,
              "y": 0.7696,
              "z": 0.0732
            }
          },
          {
            "elSymbol": "C",
            "p3d": {
              "x": -1.0417,
              "y": -0.7693,
              "z": 0.0732
            }
          },
          {
            "elSymbol": "H",
            "p3d": {
              "x": -1.6983,
              "y": 1.1431,
              "z": -0.7123
            }
          },
          {
            "elSymbol": "H",
            "p3d": {
              "x": -1.369,
              "y": 1.143,
              "z": 1.0434
            }
          },
          {
            "elSymbol": "H",
            "p3d": {
              "x": -1.3695,
              "y": -1.1425,
              "z": 1.0434
            }
          },
          {
            "elSymbol": "H",
            "p3d": {
              "x": -1.6988,
              "y": -1.1424,
              "z": -0.7123
            }
          }
        ],
        "bonds": [
          {
            "atomIds": [
              0,
              1
            ],
            "bo": "SINGLE"
          },
          {
            "atomIds": [
              0,
              2
            ],
            "bo": "SINGLE"
          },
          {
            "atomIds": [
              0,
              3
            ],
            "bo": "SINGLE"
          },
          {
            "atomIds": [
              1,
              4
            ],
            "bo": "SINGLE"
          },
          {
            "atomIds": [
              1,
              5
            ],
            "bo": "SINGLE"
          }
        ]
      },
      "vertexId": 693764,
      "buildingBlockId": 65,
      "buildingBlockType": "FRAGMENT",
      "isRCV": false,
      "properties": {
        "ATTACHMENT_POINTS": "1#bridge:0:SINGLE:0.4118%1.2100%-0.1993 2#bridge:0:SINGLE:0.4112%-1.2101%-0.1993 ",
        "OLDVERTEXID": 3749
      },
      "uniquefyingPropertyKeys": [],
      "allowedMutationTypes": [
        "DELETE",
        "EXTEND",
        "CHANGEBRANCH",
        "CHANGELINK",
        "ADDLINK",
        "DELETELINK",
        "DELETECHAIN"
      ],
      "vertexType": "MolecularFragment"
    },
    {
      "lstAPs": [
        {
          "id": 1214622,
          "atomPositionNumber": 1,
          "atomPositionNumberInMol": -1,
          "apClass": {
            "rule": "bridge",
            "subClass": 0,
            "bndTyp": "SINGLE"
          },
          "dirVec": {
            "x": 0.4112,
            "y": -1.2101,
            "z": -0.19930000000000003
          }
        },
        {
          "id": 1214623,
          "atomPositionNumber": 0,
          "atomPositionNumberInMol": -1,
          "apClass": {
            "rule": "bridge",
            "subClass": 0,
            "bndTyp": "SINGLE"
          },
          "dirVec": {
            "x": 0.41179999999999994,
            "y": 1.21,
            "z": -0.19930000000000003
          }
        }
      ],
      "lstSymAPs": [
        {
          "symIds": [
            0,
            1
          ]
        }
      ],
      "mol": {
        "atoms": [
          {
            "elSymbol": "C",
            "p3d": {
              "x": -1.0414,
              "y": 0.7696,
              "z": 0.0732
            }
          },
          {
            "elSymbol": "C",
            "p3d": {
              "x": -1.0417,
              "y": -0.7693,
              "z": 0.0732
            }
          },
          {
            "elSymbol": "H",
            "p3d": {
              "x": -1.6983,
              "y": 1.1431,
              "z": -0.7123
            }
          },
          {
            "elSymbol": "H",
            "p3d": {
              "x": -1.369,
              "y": 1.143,
              "z": 1.0434
            }
          },
          {
            "elSymbol": "H",
            "p3d": {
              "x": -1.3695,
              "y": -1.1425,
              "z": 1.0434
            }
          },
          {
            "elSymbol": "H",
            "p3d": {
              "x": -1.6988,
              "y": -1.1424,
              "z": -0.7123
            }
          }
        ],
        "bonds": [
          {
            "atomIds": [
              0,
              1
            ],
            "bo": "SINGLE"
          },
          {
            "atomIds": [
              0,
              2
            ],
            "bo": "SINGLE"
          },
          {
            "atomIds": [
              0,
              3
            ],
            "bo": "SINGLE"
          },
          {
            "atomIds": [
              1,
              4
            ],
            "bo": "SINGLE"
          },
          {
            "atomIds": [
              1,
              5
            ],
            "bo": "SINGLE"
          }
        ]
      },
      "vertexId": 693765,
      "buildingBlockId": 65,
      "buildingBlockType": "FRAGMENT",
      "isRCV": false,
      "properties": {
        "ATTACHMENT_POINTS": "1#bridge:0:SINGLE:0.4118%1.2100%-0.1993 2#bridge:0:SINGLE:0.4112%-1.2101%-0.1993 ",
        "OLDVERTEXID": 3789
      },
      "uniquefyingPropertyKeys": [],
      "allowedMutationTypes": [
        "DELETE",
        "EXTEND",
        "CHANGEBRANCH",
        "CHANGELINK",
        "ADDLINK",
        "DELETELINK",
        "DELETECHAIN"
      ],
      "vertexType": "MolecularFragment"
    },
    {
      "lstAPs": [
        {
          "id": 1214624,
          "atomPositionNumber": 0,
          "atomPositionNumberInMol": -1,
          "apClass": {
            "rule": "ATminus",
            "subClass": 0,
            "bndTyp": "ANY"
          },
          "dirVec": {
            "x": 0.0109,
            "y": -0.0071,
            "z": 0.0026
          }
        }
      ],
      "lstSymAPs": [],
      "mol": {
        "atoms": [
          {
            "elSymbol": "ATM",
            "p3d": {
              "x": -0.0096,
              "y": 0.0045,
              "z": -0.0011
            }
          }
        ],
        "bonds": []
      },
      "vertexId": 693766,
      "buildingBlockId": 79,
      "buildingBlockType": "FRAGMENT",
      "isRCV": true,
      "properties": {
        "ATTACHMENT_POINTS": "1#ATminus:0:ANY:0.0109%-0.0071%0.0026 ",
        "OLDVERTEXID": 693431
      },
      "uniquefyingPropertyKeys": [],
      "allowedMutationTypes": [
        "DELETE",
        "EXTEND",
        "CHANGEBRANCH",
        "CHANGELINK",
        "ADDLINK",
        "DELETELINK",
        "DELETECHAIN"
      ],
      "vertexType": "MolecularFragment"
    },
    {
      "lstAPs": [
        {
          "id": 1214625,
          "atomPositionNumber": 0,
          "atomPositionNumberInMol": -1,
          "apClass": {
            "rule": "ATminus",
            "subClass": 0,
            "bndTyp": "ANY"
          },
          "dirVec": {
            "x": 0.0109,
            "y": -0.0071,
            "z": 0.0026
          }
        }
      ],
      "lstSymAPs": [],
      "mol": {
        "atoms": [
          {
            "elSymbol": "ATM",
            "p3d": {
              "x": -0.0096,
              "y": 0.0045,
              "z": -0.0011
            }
          }
        ],
        "bonds": []
      },
      "vertexId": 693767,
      "buildingBlockId": 79,
      "buildingBlockType": "FRAGMENT",
      "isRCV": true,
      "properties": {
        "ATTACHMENT_POINTS": "1#ATminus:0:ANY:0.0109%-0.0071%0.0026 ",
        "OLDVERTEXID": 693430
      },
      "uniquefyingPropertyKeys": [],
      "allowedMutationTypes": [
        "DELETE",
        "EXTEND",
        "CHANGEBRANCH",
        "CHANGELINK",
        "ADDLINK",
        "DELETELINK",
        "DELETECHAIN"
      ],
      "vertexType": "MolecularFragment"
    }
  ],
  "gEdges": [
    {
      "srcAPID": 1214610,
      "trgAPID": 1214613,
      "bondType": "SINGLE"
    },
    {
      "srcAPID": 1214611,
      "trgAPID": 1214614,
      "bondType": "SINGLE"
    },
    {
      "srcAPID": 1214612,
      "trgAPID": 1214615,
      "bondType": "SINGLE"
    },
    {
      "srcAPID": 1214609,
      "trgAPID": 1214616,
      "bondType": "SINGLE"
    },
    {
      "srcAPID": 1214608,
      "trgAPID": 1214618,
      "bondType": "SINGLE"
    },
    {
      "srcAPID": 1214617,
      "trgAPID": 1214620,
      "bondType": "SINGLE"
    },
    {
      "srcAPID": 1214619,
      "trgAPID": 1214622,
      "bondType": "SINGLE"
    },
    {
      "srcAPID": 1214623,
      "trgAPID": 1214624,
      "bondType": "SINGLE"
    },
    {
      "srcAPID": 1214621,
      "trgAPID": 1214625,
      "bondType": "SINGLE"
    }
  ],
  "gRings": [
    {
      "vertices": [
        693760,
        693759,
        693758,
        693763,
        693765,
        693766
      ],
      "bndTyp": "SINGLE"
    },
    {
      "vertices": [
        693761,
        693759,
        693758,
        693762,
        693764,
        693767
      ],
      "bndTyp": "SINGLE"
    }
  ],
  "symVertices": [
    {
      "symIds": [
        693760,
        693761
      ]
    },
    {
      "symIds": [
        693762,
        693763
      ]
    },
    {
      "symIds": [
        693764,
        693765
      ]
    },
    {
      "symIds": [
        693766,
        693767
      ]
    }
  ]
}

> <SMILES>
[Pt]12(C#O)[C]3N(C([H])([H])C([H])([H])C(N3C(C([H])([H])C(=O)O1)([H])[H])([H])[H])C(C([H])([H])C(=O)O2)([H])[H]

$$$$
