M10012834
  CDK     05042201263D

 34 38  0  0  0  0  0  0  0  0999 V2000
   -0.0095   -0.0001   -1.6896 Pt  0  0  0  0  0  0  0  0  0  0  0  0
   -0.0204   -0.0004   -3.5986 C   0  0  0  0  0  0  0  0  0  0  0  0
   -0.0270   -0.0006   -4.7441 O   0  0  0  0  0  0  0  0  0  0  0  0
    0.0016    0.0001    0.2826 N   0  0  0  0  0  0  0  0  0  0  0  0
   -0.6256   -1.0341    0.9683 C   0  0  0  0  0  0  0  0  0  0  0  0
   -0.5829   -1.0455    2.3765 C   0  0  0  0  0  0  0  0  0  0  0  0
   -1.0160   -1.8871    2.9198 H   0  0  0  0  0  0  0  0  0  0  0  0
    0.0172    0.0004    3.0734 C   0  0  0  0  0  0  0  0  0  0  0  0
    0.0233    0.0005    4.1664 H   0  0  0  0  0  0  0  0  0  0  0  0
    0.6094    1.0462    2.3696 C   0  0  0  0  0  0  0  0  0  0  0  0
    1.0486    1.8878    2.9078 H   0  0  0  0  0  0  0  0  0  0  0  0
    0.6364    1.0344    0.9610 C   0  0  0  0  0  0  0  0  0  0  0  0
    0.0345   -2.0590   -1.7593 O   0  0  0  0  0  0  0  0  0  0  0  0
   -0.9146   -2.6159   -1.0154 C   0  0  0  0  0  0  0  0  0  0  0  0
   -1.5014   -3.8004   -1.5464 C   0  0  0  0  0  0  0  0  0  0  0  0
   -2.5403   -4.4073   -0.8736 C   0  0  0  0  0  0  0  0  0  0  0  0
   -3.0255   -3.8540    0.3337 C   0  0  0  0  0  0  0  0  0  0  0  0
   -2.4228   -2.7338    0.8732 C   0  0  0  0  0  0  0  0  0  0  0  0
   -1.3172   -2.0995    0.2422 C   0  0  0  0  0  0  0  0  0  0  0  0
   -1.1113   -4.1874   -2.4869 H   0  0  0  0  0  0  0  0  0  0  0  0
   -2.8062   -2.3173    1.8077 H   0  0  0  0  0  0  0  0  0  0  0  0
   -3.8727   -4.3196    0.8319 H   0  0  0  0  0  0  0  0  0  0  0  0
   -3.0045   -5.3105   -1.2733 H   0  0  0  0  0  0  0  0  0  0  0  0
   -0.0543    2.0587   -1.7592 O   0  0  0  0  0  0  0  0  0  0  0  0
    0.9031    2.6158   -1.0262 C   0  0  0  0  0  0  0  0  0  0  0  0
    1.4840    3.8001   -1.5640 C   0  0  0  0  0  0  0  0  0  0  0  0
    2.5304    4.4071   -0.9031 C   0  0  0  0  0  0  0  0  0  0  0  0
    3.0292    3.8539    0.2988 C   0  0  0  0  0  0  0  0  0  0  0  0
    2.4325    2.7339    0.8453 C   0  0  0  0  0  0  0  0  0  0  0  0
    1.3199    2.0995    0.2269 C   0  0  0  0  0  0  0  0  0  0  0  0
    1.0833    4.1869   -2.5001 H   0  0  0  0  0  0  0  0  0  0  0  0
    2.8264    2.3176    1.7754 H   0  0  0  0  0  0  0  0  0  0  0  0
    2.9902    5.3101   -1.3082 H   0  0  0  0  0  0  0  0  0  0  0  0
    3.8820    4.3196    0.7873 H   0  0  0  0  0  0  0  0  0  0  0  0
  2  3  3  0  0  0  0
  1  2  1  0  0  0  0
  6  5  1  0  0  0  0
  7  6  1  0  0  0  0
  8  6  2  0  0  0  0
  9  8  1  0  0  0  0
 10  8  1  0  0  0  0
 10 12  2  0  0  0  0
 11 10  1  0  0  0  0
 12  4  1  0  0  0  0
  4  5  2  0  0  0  0
  1  4  1  0  0  0  0
  1 13  1  0  0  0  0
 14 15  1  0  0  0  0
 15 16  2  0  0  0  0
 16 17  1  0  0  0  0
 17 18  2  0  0  0  0
 18 19  1  0  0  0  0
 14 19  2  0  0  0  0
 15 20  1  0  0  0  0
 18 21  1  0  0  0  0
 13 14  1  0  0  0  0
 17 22  1  0  0  0  0
 16 23  1  0  0  0  0
  1 24  1  0  0  0  0
 25 26  1  0  0  0  0
 26 27  2  0  0  0  0
 27 28  1  0  0  0  0
 28 29  2  0  0  0  0
 29 30  1  0  0  0  0
 25 30  2  0  0  0  0
 26 31  1  0  0  0  0
 29 32  1  0  0  0  0
 24 25  1  0  0  0  0
 27 33  1  0  0  0  0
 28 34  1  0  0  0  0
 12 30  1  0  0  0  0
  5 19  1  0  0  0  0
M  END
> <PM6_ENERGY>
51.713

> <UID>
DBKJUGBKACCOCD-RQSJRWPXNA-L

> <FITNESS>
1.14552

> <GCODE>
21027

> <GraphENC>
21027 1178010_1_0,1178011_64_1,1178012_79_1,1178013_79_1,1178014_73_1,1178015_73_1,1178016_69_1,1178017_69_1,1178018_1_2,1178019_1_2,1178020_1_2,1178021_80_1,1178022_80_1,1178023_1_2, 1178010_2_1178011_0_SINGLE_scaff:0_MPyridine:1,1178011_1_1178012_0_SINGLE_LPyridineAlpha:0_ATplus:0,1178011_2_1178013_0_SINGLE_LPyridineAlpha:0_ATplus:0,1178010_1_1178014_0_SINGLE_Xlig:0_Xlig:1,1178010_0_1178015_0_SINGLE_Xlig:0_Xlig:1,1178014_1_1178016_0_SINGLE_bridge:1_bridge:0,1178015_1_1178017_0_SINGLE_bridge:1_bridge:0,1178017_2_1178018_0_SINGLE_SubBridgeArS:0_hyd:1,1178017_3_1178019_0_SINGLE_SubBridgeArS:0_hyd:1,1178016_3_1178020_0_SINGLE_SubBridgeArS:0_hyd:1,1178016_1_1178021_0_SINGLE_bridge:0_ATminus:0,1178017_1_1178022_0_SINGLE_bridge:0_ATminus:0,1178016_2_1178023_0_SINGLE_SubBridgeArS:0_hyd:1, DENOPTIMRing [vertices=[1178012_79_1, 1178011_64_1, 1178010_1_0, 1178014_73_1, 1178016_69_1, 1178021_80_1]] DENOPTIMRing [vertices=[1178013_79_1, 1178011_64_1, 1178010_1_0, 1178015_73_1, 1178017_69_1, 1178022_80_1]] SymmetricSet [symIds=[1178012, 1178013]] SymmetricSet [symIds=[1178014, 1178015]] SymmetricSet [symIds=[1178016, 1178017]] SymmetricSet [symIds=[1178021, 1178022]] SymmetricSet [symIds=[1178018, 1178023]] SymmetricSet [symIds=[1178019, 1178020]] 

> <GraphJson>
{
  "graphId": 21027,
  "gVertices": [
    {
      "lstAPs": [
        {
          "id": 2080538,
          "atomPositionNumber": 0,
          "atomPositionNumberInMol": -1,
          "apClass": {
            "rule": "Xlig",
            "subClass": 0,
            "bndTyp": "SINGLE"
          },
          "dirVec": {
            "x": -2.3339,
            "y": -0.0087,
            "z": 0.8172
          }
        },
        {
          "id": 2080539,
          "atomPositionNumber": 0,
          "atomPositionNumberInMol": -1,
          "apClass": {
            "rule": "Xlig",
            "subClass": 0,
            "bndTyp": "SINGLE"
          },
          "dirVec": {
            "x": 2.336,
            "y": -5.0E-4,
            "z": 0.829
          }
        },
        {
          "id": 2080540,
          "atomPositionNumber": 0,
          "atomPositionNumberInMol": -1,
          "apClass": {
            "rule": "scaff",
            "subClass": 0,
            "bndTyp": "SINGLE"
          },
          "dirVec": {
            "x": -0.0095,
            "y": 0.0046,
            "z": -1.7113
          }
        }
      ],
      "lstSymAPs": [
        {
          "symIds": [
            0,
            1
          ]
        }
      ],
      "mol": {
        "atoms": [
          {
            "elSymbol": "Pt",
            "p3d": {
              "x": -0.0098,
              "y": 0.0049,
              "z": 0.6289
            }
          },
          {
            "elSymbol": "C",
            "p3d": {
              "x": -6.0E-4,
              "y": 0.0016,
              "z": 2.5609
            }
          },
          {
            "elSymbol": "O",
            "p3d": {
              "x": 0.0025,
              "y": -0.0041,
              "z": 3.6974
            }
          },
          {
            "elSymbol": "Du",
            "p3d": {
              "x": -0.007,
              "y": 1.0013,
              "z": 0.6372
            }
          },
          {
            "elSymbol": "Du",
            "p3d": {
              "x": -0.0014,
              "y": 0.9902,
              "z": 2.5698
            }
          }
        ],
        "bonds": [
          {
            "atomIds": [
              1,
              2
            ],
            "bo": "TRIPLE"
          },
          {
            "atomIds": [
              0,
              1
            ],
            "bo": "SINGLE"
          },
          {
            "atomIds": [
              3,
              0
            ],
            "bo": "SINGLE"
          },
          {
            "atomIds": [
              4,
              1
            ],
            "bo": "SINGLE"
          }
        ]
      },
      "vertexId": 1178010,
      "buildingBlockId": 0,
      "buildingBlockType": "SCAFFOLD",
      "isRCV": false,
      "properties": {
        "ATTACHMENT_POINTS": "1#Xlig:0:SINGLE:-2.3339%-0.0087%0.8172,Xlig:0:SINGLE:2.3360%-0.0005%0.8290,scaff:0:SINGLE:-0.0095%0.0046%-1.7113 ",
        "OLDVERTEXID": 201
      },
      "uniquefyingPropertyKeys": [],
      "allowedMutationTypes": [
        "DELETE",
        "EXTEND",
        "CHANGEBRANCH",
        "CHANGELINK",
        "ADDLINK",
        "DELETELINK",
        "DELETECHAIN"
      ],
      "vertexType": "MolecularFragment"
    },
    {
      "lstAPs": [
        {
          "id": 2080541,
          "atomPositionNumber": 0,
          "atomPositionNumberInMol": -1,
          "apClass": {
            "rule": "MPyridine",
            "subClass": 1,
            "bndTyp": "SINGLE"
          },
          "dirVec": {
            "x": -0.009779377457537534,
            "y": 0.004879377457537382,
            "z": 0.4680304204308088
          }
        },
        {
          "id": 2080542,
          "atomPositionNumber": 1,
          "atomPositionNumberInMol": -1,
          "apClass": {
            "rule": "LPyridineAlpha",
            "subClass": 0,
            "bndTyp": "SINGLE"
          },
          "dirVec": {
            "x": 1.7498113878580424,
            "y": -1.5425521902462944,
            "z": -1.2670236023275012
          }
        },
        {
          "id": 2080543,
          "atomPositionNumber": 8,
          "atomPositionNumberInMol": -1,
          "apClass": {
            "rule": "LPyridineAlpha",
            "subClass": 0,
            "bndTyp": "SINGLE"
          },
          "dirVec": {
            "x": -1.623992272866726,
            "y": 1.694540172820501,
            "z": -1.2840127710767786
          }
        }
      ],
      "lstSymAPs": [
        {
          "symIds": [
            1,
            2
          ]
        }
      ],
      "mol": {
        "atoms": [
          {
            "elSymbol": "N",
            "p3d": {
              "x": -0.009520622542462467,
              "y": 0.004620622542462618,
              "z": -1.5504304204308088
            }
          },
          {
            "elSymbol": "C",
            "p3d": {
              "x": 0.8426955164535905,
              "y": -0.8472127361782159,
              "z": -2.181427719478363
            }
          },
          {
            "elSymbol": "C",
            "p3d": {
              "x": 0.7971687590727337,
              "y": -0.9082893750711706,
              "z": -3.5798092977837723
            }
          },
          {
            "elSymbol": "H",
            "p3d": {
              "x": 1.3486670490833412,
              "y": -1.52302742265968,
              "z": -4.050646274838936
            }
          },
          {
            "elSymbol": "C",
            "p3d": {
              "x": -0.055461761672130454,
              "y": -0.06992844379434703,
              "z": -4.269187919444612
            }
          },
          {
            "elSymbol": "H",
            "p3d": {
              "x": -0.07372803298688399,
              "y": -0.09851265747929987,
              "z": -5.218166473501693
            }
          },
          {
            "elSymbol": "C",
            "p3d": {
              "x": -0.8903705558629028,
              "y": 0.8192168796905219,
              "z": -3.5958046191557655
            }
          },
          {
            "elSymbol": "H",
            "p3d": {
              "x": -1.467637017665257,
              "y": 1.402288830115317,
              "z": -4.075034076416081
            }
          },
          {
            "elSymbol": "C",
            "p3d": {
              "x": -0.856929403375486,
              "y": 0.830711007593109,
              "z": -2.199893416985629
            }
          }
        ],
        "bonds": [
          {
            "atomIds": [
              2,
              1
            ],
            "bo": "SINGLE"
          },
          {
            "atomIds": [
              3,
              2
            ],
            "bo": "SINGLE"
          },
          {
            "atomIds": [
              4,
              2
            ],
            "bo": "DOUBLE"
          },
          {
            "atomIds": [
              5,
              4
            ],
            "bo": "SINGLE"
          },
          {
            "atomIds": [
              6,
              4
            ],
            "bo": "SINGLE"
          },
          {
            "atomIds": [
              6,
              8
            ],
            "bo": "DOUBLE"
          },
          {
            "atomIds": [
              7,
              6
            ],
            "bo": "SINGLE"
          },
          {
            "atomIds": [
              8,
              0
            ],
            "bo": "SINGLE"
          },
          {
            "atomIds": [
              0,
              1
            ],
            "bo": "DOUBLE"
          }
        ]
      },
      "vertexId": 1178011,
      "buildingBlockId": 63,
      "buildingBlockType": "FRAGMENT",
      "isRCV": false,
      "properties": {
        "ATTACHMENT_POINTS": "1#MPyridine:1:SINGLE:-0.0098%0.0049%0.4680 2#LPyridineAlpha:0:SINGLE:1.7498%-1.5426%-1.2670 9#LPyridineAlpha:0:SINGLE:-1.6240%1.6945%-1.2840 ",
        "OLDVERTEXID": 202
      },
      "uniquefyingPropertyKeys": [],
      "allowedMutationTypes": [
        "DELETE",
        "EXTEND",
        "CHANGEBRANCH",
        "CHANGELINK",
        "ADDLINK",
        "DELETELINK",
        "DELETECHAIN"
      ],
      "vertexType": "MolecularFragment"
    },
    {
      "lstAPs": [
        {
          "id": 2080544,
          "atomPositionNumber": 0,
          "atomPositionNumberInMol": -1,
          "apClass": {
            "rule": "ATplus",
            "subClass": 0,
            "bndTyp": "ANY"
          },
          "dirVec": {
            "x": 1.7498113878580424,
            "y": -1.5425521902462944,
            "z": -1.2670236023275012
          }
        }
      ],
      "lstSymAPs": [],
      "mol": {
        "atoms": [
          {
            "elSymbol": "ATP",
            "p3d": {
              "x": 1.7628208697291199,
              "y": -1.552524462044315,
              "z": -1.2539095954404926
            }
          }
        ],
        "bonds": []
      },
      "vertexId": 1178012,
      "buildingBlockId": 78,
      "buildingBlockType": "FRAGMENT",
      "isRCV": true,
      "properties": {
        "ATTACHMENT_POINTS": "1#ATplus:0:ANY:1.7498%-1.5426%-1.2670 ",
        "OLDVERTEXID": 203
      },
      "uniquefyingPropertyKeys": [],
      "allowedMutationTypes": [
        "DELETE",
        "EXTEND",
        "CHANGEBRANCH",
        "CHANGELINK",
        "ADDLINK",
        "DELETELINK",
        "DELETECHAIN"
      ],
      "vertexType": "MolecularFragment"
    },
    {
      "lstAPs": [
        {
          "id": 2080545,
          "atomPositionNumber": 0,
          "atomPositionNumberInMol": -1,
          "apClass": {
            "rule": "ATplus",
            "subClass": 0,
            "bndTyp": "ANY"
          },
          "dirVec": {
            "x": -1.623992272866726,
            "y": 1.694540172820501,
            "z": -1.2840127710767786
          }
        }
      ],
      "lstSymAPs": [],
      "mol": {
        "atoms": [
          {
            "elSymbol": "ATP",
            "p3d": {
              "x": -1.634914608334237,
              "y": 1.7068403796281795,
              "z": -1.2709713945994476
            }
          }
        ],
        "bonds": []
      },
      "vertexId": 1178013,
      "buildingBlockId": 78,
      "buildingBlockType": "FRAGMENT",
      "isRCV": true,
      "properties": {
        "ATTACHMENT_POINTS": "1#ATplus:0:ANY:-1.6240%1.6945%-1.2840 ",
        "OLDVERTEXID": 204
      },
      "uniquefyingPropertyKeys": [],
      "allowedMutationTypes": [
        "DELETE",
        "EXTEND",
        "CHANGEBRANCH",
        "CHANGELINK",
        "ADDLINK",
        "DELETELINK",
        "DELETECHAIN"
      ],
      "vertexType": "MolecularFragment"
    },
    {
      "lstAPs": [
        {
          "id": 2080546,
          "atomPositionNumber": 0,
          "atomPositionNumberInMol": -1,
          "apClass": {
            "rule": "Xlig",
            "subClass": 1,
            "bndTyp": "SINGLE"
          },
          "dirVec": {
            "x": -0.1753,
            "y": 0.0948,
            "z": -0.4464
          }
        },
        {
          "id": 2080547,
          "atomPositionNumber": 0,
          "atomPositionNumberInMol": -1,
          "apClass": {
            "rule": "bridge",
            "subClass": 1,
            "bndTyp": "SINGLE"
          },
          "dirVec": {
            "x": -0.5345,
            "y": 2.7646,
            "z": 0.48009999999999997
          }
        }
      ],
      "lstSymAPs": [],
      "mol": {
        "atoms": [
          {
            "elSymbol": "O",
            "p3d": {
              "x": -0.3534,
              "y": 2.1044,
              "z": -0.7339
            }
          }
        ],
        "bonds": []
      },
      "vertexId": 1178014,
      "buildingBlockId": 72,
      "buildingBlockType": "FRAGMENT",
      "isRCV": false,
      "properties": {
        "ATTACHMENT_POINTS": "1#Xlig:1:SINGLE:-0.1753%0.0948%-0.4464,bridge:1:SINGLE:-0.5345%2.7646%0.4801 ",
        "OLDVERTEXID": 703
      },
      "uniquefyingPropertyKeys": [],
      "allowedMutationTypes": [
        "DELETE",
        "EXTEND",
        "CHANGEBRANCH",
        "CHANGELINK",
        "ADDLINK",
        "DELETELINK",
        "DELETECHAIN"
      ],
      "vertexType": "MolecularFragment"
    },
    {
      "lstAPs": [
        {
          "id": 2080548,
          "atomPositionNumber": 0,
          "atomPositionNumberInMol": -1,
          "apClass": {
            "rule": "Xlig",
            "subClass": 1,
            "bndTyp": "SINGLE"
          },
          "dirVec": {
            "x": -0.1753,
            "y": 0.0948,
            "z": -0.4464
          }
        },
        {
          "id": 2080549,
          "atomPositionNumber": 0,
          "atomPositionNumberInMol": -1,
          "apClass": {
            "rule": "bridge",
            "subClass": 1,
            "bndTyp": "SINGLE"
          },
          "dirVec": {
            "x": -0.5345,
            "y": 2.7646,
            "z": 0.48009999999999997
          }
        }
      ],
      "lstSymAPs": [],
      "mol": {
        "atoms": [
          {
            "elSymbol": "O",
            "p3d": {
              "x": -0.3534,
              "y": 2.1044,
              "z": -0.7339
            }
          }
        ],
        "bonds": []
      },
      "vertexId": 1178015,
      "buildingBlockId": 72,
      "buildingBlockType": "FRAGMENT",
      "isRCV": false,
      "properties": {
        "ATTACHMENT_POINTS": "1#Xlig:1:SINGLE:-0.1753%0.0948%-0.4464,bridge:1:SINGLE:-0.5345%2.7646%0.4801 ",
        "OLDVERTEXID": 697
      },
      "uniquefyingPropertyKeys": [],
      "allowedMutationTypes": [
        "DELETE",
        "EXTEND",
        "CHANGEBRANCH",
        "CHANGELINK",
        "ADDLINK",
        "DELETELINK",
        "DELETECHAIN"
      ],
      "vertexType": "MolecularFragment"
    },
    {
      "lstAPs": [
        {
          "id": 2080550,
          "atomPositionNumber": 0,
          "atomPositionNumberInMol": -1,
          "apClass": {
            "rule": "bridge",
            "subClass": 0,
            "bndTyp": "SINGLE"
          },
          "dirVec": {
            "x": 2.5022,
            "y": 1.4447,
            "z": 0.0013
          }
        },
        {
          "id": 2080551,
          "atomPositionNumber": 5,
          "atomPositionNumberInMol": -1,
          "apClass": {
            "rule": "bridge",
            "subClass": 0,
            "bndTyp": "SINGLE"
          },
          "dirVec": {
            "x": 2.5022,
            "y": -1.4447,
            "z": -0.0015
          }
        },
        {
          "id": 2080552,
          "atomPositionNumber": 2,
          "atomPositionNumberInMol": -1,
          "apClass": {
            "rule": "SubBridgeArS",
            "subClass": 0,
            "bndTyp": "SINGLE"
          },
          "dirVec": {
            "x": -2.5022,
            "y": 1.4447,
            "z": -0.0014
          }
        },
        {
          "id": 2080553,
          "atomPositionNumber": 3,
          "atomPositionNumberInMol": -1,
          "apClass": {
            "rule": "SubBridgeArS",
            "subClass": 0,
            "bndTyp": "SINGLE"
          },
          "dirVec": {
            "x": -2.5022,
            "y": -1.4447,
            "z": 6.0E-4
          }
        }
      ],
      "lstSymAPs": [
        {
          "symIds": [
            0,
            1
          ]
        },
        {
          "symIds": [
            2,
            3
          ]
        }
      ],
      "mol": {
        "atoms": [
          {
            "elSymbol": "C",
            "p3d": {
              "x": 1.1971,
              "y": 0.6912,
              "z": 0.0015
            }
          },
          {
            "elSymbol": "C",
            "p3d": {
              "x": 0.0,
              "y": 1.3824,
              "z": -3.0E-4
            }
          },
          {
            "elSymbol": "C",
            "p3d": {
              "x": -1.1971,
              "y": 0.6912,
              "z": -1.0E-4
            }
          },
          {
            "elSymbol": "C",
            "p3d": {
              "x": -1.1971,
              "y": -0.6912,
              "z": 9.0E-4
            }
          },
          {
            "elSymbol": "C",
            "p3d": {
              "x": 0.0,
              "y": -1.3824,
              "z": 0.0017
            }
          },
          {
            "elSymbol": "C",
            "p3d": {
              "x": 1.1971,
              "y": -0.6912,
              "z": -0.0024
            }
          },
          {
            "elSymbol": "H",
            "p3d": {
              "x": 0.0,
              "y": 2.4624,
              "z": -0.0014
            }
          },
          {
            "elSymbol": "H",
            "p3d": {
              "x": 0.0,
              "y": -2.4624,
              "z": 0.0021
            }
          }
        ],
        "bonds": [
          {
            "atomIds": [
              0,
              1
            ],
            "bo": "SINGLE"
          },
          {
            "atomIds": [
              1,
              2
            ],
            "bo": "DOUBLE"
          },
          {
            "atomIds": [
              2,
              3
            ],
            "bo": "SINGLE"
          },
          {
            "atomIds": [
              3,
              4
            ],
            "bo": "DOUBLE"
          },
          {
            "atomIds": [
              4,
              5
            ],
            "bo": "SINGLE"
          },
          {
            "atomIds": [
              0,
              5
            ],
            "bo": "DOUBLE"
          },
          {
            "atomIds": [
              1,
              6
            ],
            "bo": "SINGLE"
          },
          {
            "atomIds": [
              4,
              7
            ],
            "bo": "SINGLE"
          }
        ]
      },
      "vertexId": 1178016,
      "buildingBlockId": 68,
      "buildingBlockType": "FRAGMENT",
      "isRCV": false,
      "properties": {
        "ATTACHMENT_POINTS": "1#bridge:0:SINGLE:2.5022%1.4447%0.0013 3#SubBridgeArS:0:SINGLE:-2.5022%1.4447%-0.0014 4#SubBridgeArS:0:SINGLE:-2.5022%-1.4447%0.0006 6#bridge:0:SINGLE:2.5022%-1.4447%-0.0015 ",
        "OLDVERTEXID": 20879
      },
      "uniquefyingPropertyKeys": [],
      "allowedMutationTypes": [
        "DELETE",
        "EXTEND",
        "CHANGEBRANCH",
        "CHANGELINK",
        "ADDLINK",
        "DELETELINK",
        "DELETECHAIN"
      ],
      "vertexType": "MolecularFragment"
    },
    {
      "lstAPs": [
        {
          "id": 2080554,
          "atomPositionNumber": 0,
          "atomPositionNumberInMol": -1,
          "apClass": {
            "rule": "bridge",
            "subClass": 0,
            "bndTyp": "SINGLE"
          },
          "dirVec": {
            "x": 2.5022,
            "y": 1.4447,
            "z": 0.0013
          }
        },
        {
          "id": 2080555,
          "atomPositionNumber": 5,
          "atomPositionNumberInMol": -1,
          "apClass": {
            "rule": "bridge",
            "subClass": 0,
            "bndTyp": "SINGLE"
          },
          "dirVec": {
            "x": 2.5022,
            "y": -1.4447,
            "z": -0.0015
          }
        },
        {
          "id": 2080556,
          "atomPositionNumber": 2,
          "atomPositionNumberInMol": -1,
          "apClass": {
            "rule": "SubBridgeArS",
            "subClass": 0,
            "bndTyp": "SINGLE"
          },
          "dirVec": {
            "x": -2.5022,
            "y": 1.4447,
            "z": -0.0014
          }
        },
        {
          "id": 2080557,
          "atomPositionNumber": 3,
          "atomPositionNumberInMol": -1,
          "apClass": {
            "rule": "SubBridgeArS",
            "subClass": 0,
            "bndTyp": "SINGLE"
          },
          "dirVec": {
            "x": -2.5022,
            "y": -1.4447,
            "z": 6.0E-4
          }
        }
      ],
      "lstSymAPs": [
        {
          "symIds": [
            0,
            1
          ]
        },
        {
          "symIds": [
            2,
            3
          ]
        }
      ],
      "mol": {
        "atoms": [
          {
            "elSymbol": "C",
            "p3d": {
              "x": 1.1971,
              "y": 0.6912,
              "z": 0.0015
            }
          },
          {
            "elSymbol": "C",
            "p3d": {
              "x": 0.0,
              "y": 1.3824,
              "z": -3.0E-4
            }
          },
          {
            "elSymbol": "C",
            "p3d": {
              "x": -1.1971,
              "y": 0.6912,
              "z": -1.0E-4
            }
          },
          {
            "elSymbol": "C",
            "p3d": {
              "x": -1.1971,
              "y": -0.6912,
              "z": 9.0E-4
            }
          },
          {
            "elSymbol": "C",
            "p3d": {
              "x": 0.0,
              "y": -1.3824,
              "z": 0.0017
            }
          },
          {
            "elSymbol": "C",
            "p3d": {
              "x": 1.1971,
              "y": -0.6912,
              "z": -0.0024
            }
          },
          {
            "elSymbol": "H",
            "p3d": {
              "x": 0.0,
              "y": 2.4624,
              "z": -0.0014
            }
          },
          {
            "elSymbol": "H",
            "p3d": {
              "x": 0.0,
              "y": -2.4624,
              "z": 0.0021
            }
          }
        ],
        "bonds": [
          {
            "atomIds": [
              0,
              1
            ],
            "bo": "SINGLE"
          },
          {
            "atomIds": [
              1,
              2
            ],
            "bo": "DOUBLE"
          },
          {
            "atomIds": [
              2,
              3
            ],
            "bo": "SINGLE"
          },
          {
            "atomIds": [
              3,
              4
            ],
            "bo": "DOUBLE"
          },
          {
            "atomIds": [
              4,
              5
            ],
            "bo": "SINGLE"
          },
          {
            "atomIds": [
              0,
              5
            ],
            "bo": "DOUBLE"
          },
          {
            "atomIds": [
              1,
              6
            ],
            "bo": "SINGLE"
          },
          {
            "atomIds": [
              4,
              7
            ],
            "bo": "SINGLE"
          }
        ]
      },
      "vertexId": 1178017,
      "buildingBlockId": 68,
      "buildingBlockType": "FRAGMENT",
      "isRCV": false,
      "properties": {
        "ATTACHMENT_POINTS": "1#bridge:0:SINGLE:2.5022%1.4447%0.0013 3#SubBridgeArS:0:SINGLE:-2.5022%1.4447%-0.0014 4#SubBridgeArS:0:SINGLE:-2.5022%-1.4447%0.0006 6#bridge:0:SINGLE:2.5022%-1.4447%-0.0015 ",
        "OLDVERTEXID": 21013
      },
      "uniquefyingPropertyKeys": [],
      "allowedMutationTypes": [
        "DELETE",
        "EXTEND",
        "CHANGEBRANCH",
        "CHANGELINK",
        "ADDLINK",
        "DELETELINK",
        "DELETECHAIN"
      ],
      "vertexType": "MolecularFragment"
    },
    {
      "lstAPs": [
        {
          "id": 2080558,
          "atomPositionNumber": 0,
          "atomPositionNumberInMol": -1,
          "apClass": {
            "rule": "hyd",
            "subClass": 1,
            "bndTyp": "SINGLE"
          },
          "dirVec": {
            "x": 0.4589,
            "y": -1.751,
            "z": 0.3869
          }
        }
      ],
      "lstSymAPs": [],
      "mol": {
        "atoms": [
          {
            "elSymbol": "H",
            "p3d": {
              "x": 0.1925,
              "y": -2.5024,
              "z": 1.1483
            }
          }
        ],
        "bonds": []
      },
      "vertexId": 1178018,
      "buildingBlockId": 0,
      "buildingBlockType": "CAP",
      "isRCV": false,
      "properties": {
        "ATTACHMENT_POINTS": "1#hyd:1:SINGLE:0.4589%-1.7510%0.3869 ",
        "OLDVERTEXID": 1177578
      },
      "uniquefyingPropertyKeys": [],
      "allowedMutationTypes": [
        "DELETE",
        "EXTEND",
        "CHANGEBRANCH",
        "CHANGELINK",
        "ADDLINK",
        "DELETELINK",
        "DELETECHAIN"
      ],
      "vertexType": "MolecularFragment"
    },
    {
      "lstAPs": [
        {
          "id": 2080559,
          "atomPositionNumber": 0,
          "atomPositionNumberInMol": -1,
          "apClass": {
            "rule": "hyd",
            "subClass": 1,
            "bndTyp": "SINGLE"
          },
          "dirVec": {
            "x": 0.4589,
            "y": -1.751,
            "z": 0.3869
          }
        }
      ],
      "lstSymAPs": [],
      "mol": {
        "atoms": [
          {
            "elSymbol": "H",
            "p3d": {
              "x": 0.1925,
              "y": -2.5024,
              "z": 1.1483
            }
          }
        ],
        "bonds": []
      },
      "vertexId": 1178019,
      "buildingBlockId": 0,
      "buildingBlockType": "CAP",
      "isRCV": false,
      "properties": {
        "ATTACHMENT_POINTS": "1#hyd:1:SINGLE:0.4589%-1.7510%0.3869 ",
        "OLDVERTEXID": 1177576
      },
      "uniquefyingPropertyKeys": [],
      "allowedMutationTypes": [
        "DELETE",
        "EXTEND",
        "CHANGEBRANCH",
        "CHANGELINK",
        "ADDLINK",
        "DELETELINK",
        "DELETECHAIN"
      ],
      "vertexType": "MolecularFragment"
    },
    {
      "lstAPs": [
        {
          "id": 2080560,
          "atomPositionNumber": 0,
          "atomPositionNumberInMol": -1,
          "apClass": {
            "rule": "hyd",
            "subClass": 1,
            "bndTyp": "SINGLE"
          },
          "dirVec": {
            "x": 0.4589,
            "y": -1.751,
            "z": 0.3869
          }
        }
      ],
      "lstSymAPs": [],
      "mol": {
        "atoms": [
          {
            "elSymbol": "H",
            "p3d": {
              "x": 0.1925,
              "y": -2.5024,
              "z": 1.1483
            }
          }
        ],
        "bonds": []
      },
      "vertexId": 1178020,
      "buildingBlockId": 0,
      "buildingBlockType": "CAP",
      "isRCV": false,
      "properties": {
        "ATTACHMENT_POINTS": "1#hyd:1:SINGLE:0.4589%-1.7510%0.3869 ",
        "OLDVERTEXID": 1174989
      },
      "uniquefyingPropertyKeys": [],
      "allowedMutationTypes": [
        "DELETE",
        "EXTEND",
        "CHANGEBRANCH",
        "CHANGELINK",
        "ADDLINK",
        "DELETELINK",
        "DELETECHAIN"
      ],
      "vertexType": "MolecularFragment"
    },
    {
      "lstAPs": [
        {
          "id": 2080561,
          "atomPositionNumber": 0,
          "atomPositionNumberInMol": -1,
          "apClass": {
            "rule": "ATminus",
            "subClass": 0,
            "bndTyp": "ANY"
          },
          "dirVec": {
            "x": 0.0109,
            "y": -0.0071,
            "z": 0.0026
          }
        }
      ],
      "lstSymAPs": [],
      "mol": {
        "atoms": [
          {
            "elSymbol": "ATM",
            "p3d": {
              "x": -0.0096,
              "y": 0.0045,
              "z": -0.0011
            }
          }
        ],
        "bonds": []
      },
      "vertexId": 1178021,
      "buildingBlockId": 79,
      "buildingBlockType": "FRAGMENT",
      "isRCV": true,
      "properties": {
        "ATTACHMENT_POINTS": "1#ATminus:0:ANY:0.0109%-0.0071%0.0026 ",
        "OLDVERTEXID": 1174977
      },
      "uniquefyingPropertyKeys": [],
      "allowedMutationTypes": [
        "DELETE",
        "EXTEND",
        "CHANGEBRANCH",
        "CHANGELINK",
        "ADDLINK",
        "DELETELINK",
        "DELETECHAIN"
      ],
      "vertexType": "MolecularFragment"
    },
    {
      "lstAPs": [
        {
          "id": 2080562,
          "atomPositionNumber": 0,
          "atomPositionNumberInMol": -1,
          "apClass": {
            "rule": "ATminus",
            "subClass": 0,
            "bndTyp": "ANY"
          },
          "dirVec": {
            "x": 0.0109,
            "y": -0.0071,
            "z": 0.0026
          }
        }
      ],
      "lstSymAPs": [],
      "mol": {
        "atoms": [
          {
            "elSymbol": "ATM",
            "p3d": {
              "x": -0.0096,
              "y": 0.0045,
              "z": -0.0011
            }
          }
        ],
        "bonds": []
      },
      "vertexId": 1178022,
      "buildingBlockId": 79,
      "buildingBlockType": "FRAGMENT",
      "isRCV": true,
      "properties": {
        "ATTACHMENT_POINTS": "1#ATminus:0:ANY:0.0109%-0.0071%0.0026 ",
        "OLDVERTEXID": 1177577
      },
      "uniquefyingPropertyKeys": [],
      "allowedMutationTypes": [
        "DELETE",
        "EXTEND",
        "CHANGEBRANCH",
        "CHANGELINK",
        "ADDLINK",
        "DELETELINK",
        "DELETECHAIN"
      ],
      "vertexType": "MolecularFragment"
    },
    {
      "lstAPs": [
        {
          "id": 2080563,
          "atomPositionNumber": 0,
          "atomPositionNumberInMol": -1,
          "apClass": {
            "rule": "hyd",
            "subClass": 1,
            "bndTyp": "SINGLE"
          },
          "dirVec": {
            "x": 0.4589,
            "y": -1.751,
            "z": 0.3869
          }
        }
      ],
      "lstSymAPs": [],
      "mol": {
        "atoms": [
          {
            "elSymbol": "H",
            "p3d": {
              "x": 0.1925,
              "y": -2.5024,
              "z": 1.1483
            }
          }
        ],
        "bonds": []
      },
      "vertexId": 1178023,
      "buildingBlockId": 0,
      "buildingBlockType": "CAP",
      "isRCV": false,
      "properties": {
        "ATTACHMENT_POINTS": "1#hyd:1:SINGLE:0.4589%-1.7510%0.3869 ",
        "OLDVERTEXID": 1174983
      },
      "uniquefyingPropertyKeys": [],
      "allowedMutationTypes": [
        "DELETE",
        "EXTEND",
        "CHANGEBRANCH",
        "CHANGELINK",
        "ADDLINK",
        "DELETELINK",
        "DELETECHAIN"
      ],
      "vertexType": "MolecularFragment"
    }
  ],
  "gEdges": [
    {
      "srcAPID": 2080540,
      "trgAPID": 2080541,
      "bondType": "SINGLE"
    },
    {
      "srcAPID": 2080542,
      "trgAPID": 2080544,
      "bondType": "SINGLE"
    },
    {
      "srcAPID": 2080543,
      "trgAPID": 2080545,
      "bondType": "SINGLE"
    },
    {
      "srcAPID": 2080539,
      "trgAPID": 2080546,
      "bondType": "SINGLE"
    },
    {
      "srcAPID": 2080538,
      "trgAPID": 2080548,
      "bondType": "SINGLE"
    },
    {
      "srcAPID": 2080547,
      "trgAPID": 2080550,
      "bondType": "SINGLE"
    },
    {
      "srcAPID": 2080549,
      "trgAPID": 2080554,
      "bondType": "SINGLE"
    },
    {
      "srcAPID": 2080556,
      "trgAPID": 2080558,
      "bondType": "SINGLE"
    },
    {
      "srcAPID": 2080557,
      "trgAPID": 2080559,
      "bondType": "SINGLE"
    },
    {
      "srcAPID": 2080553,
      "trgAPID": 2080560,
      "bondType": "SINGLE"
    },
    {
      "srcAPID": 2080551,
      "trgAPID": 2080561,
      "bondType": "SINGLE"
    },
    {
      "srcAPID": 2080555,
      "trgAPID": 2080562,
      "bondType": "SINGLE"
    },
    {
      "srcAPID": 2080552,
      "trgAPID": 2080563,
      "bondType": "SINGLE"
    }
  ],
  "gRings": [
    {
      "vertices": [
        1178012,
        1178011,
        1178010,
        1178014,
        1178016,
        1178021
      ],
      "bndTyp": "SINGLE"
    },
    {
      "vertices": [
        1178013,
        1178011,
        1178010,
        1178015,
        1178017,
        1178022
      ],
      "bndTyp": "SINGLE"
    }
  ],
  "symVertices": [
    {
      "symIds": [
        1178012,
        1178013
      ]
    },
    {
      "symIds": [
        1178014,
        1178015
      ]
    },
    {
      "symIds": [
        1178016,
        1178017
      ]
    },
    {
      "symIds": [
        1178021,
        1178022
      ]
    },
    {
      "symIds": [
        1178018,
        1178023
      ]
    },
    {
      "symIds": [
        1178019,
        1178020
      ]
    }
  ]
}

> <SMILES>
[Pt]12(C#O)[N]=3C(=C(C(=C(C3C=4C(=C(C(=C(C4O1)[H])[H])[H])[H])[H])[H])[H])C=5C(=C(C(=C(C5O2)[H])[H])[H])[H]

$$$$
