M20002400
  CDK     05042206423D

 44 50  0  0  0  0  0  0  0  0999 V2000
   -0.0021   -0.0187   -0.2176 Pt  0  0  0  0  0  0  0  0  0  0  0  0
   -0.0205   -0.1832   -2.1279 C   0  0  0  0  0  0  0  0  0  0  0  0
   -0.0316   -0.2816   -3.2697 O   0  0  0  0  0  0  0  0  0  0  0  0
    0.0174    0.1539    1.7875 C   0  0  0  0  0  0  0  0  0  0  0  0
    0.6002   -0.7263    2.6718 N   0  0  1  0  0  0  0  0  0  0  0  0
    0.3949   -0.2565    3.9850 C   0  0  0  0  0  0  0  0  0  0  0  0
   -0.3187    0.9343    3.8894 C   0  0  0  0  0  0  0  0  0  0  0  0
   -0.5499    1.1732    2.5195 N   0  0  1  0  0  0  0  0  0  0  0  0
    0.7492   -0.7724    4.8608 H   0  0  0  0  0  0  0  0  0  0  0  0
   -0.6571    1.5929    4.6708 H   0  0  0  0  0  0  0  0  0  0  0  0
   -0.1264   -1.9771    0.0791 N   0  0  0  0  0  0  0  0  0  0  0  0
    0.4987   -2.6563    1.1509 C   0  0  0  0  0  0  0  0  0  0  0  0
    0.2513   -4.0209    1.0853 C   0  0  0  0  0  0  0  0  0  0  0  0
   -0.5740   -4.2392   -0.0679 C   0  0  0  0  0  0  0  0  0  0  0  0
   -1.1443   -5.3895   -0.6467 C   0  0  0  0  0  0  0  0  0  0  0  0
   -1.9417   -5.2446   -1.7670 C   0  0  0  0  0  0  0  0  0  0  0  0
   -2.2014   -3.9642   -2.3250 C   0  0  0  0  0  0  0  0  0  0  0  0
   -1.6583   -2.8120   -1.7875 C   0  0  0  0  0  0  0  0  0  0  0  0
   -0.8156   -2.9491   -0.6618 C   0  0  0  0  0  0  0  0  0  0  0  0
    0.5949   -4.7815    1.7532 H   0  0  0  0  0  0  0  0  0  0  0  0
   -0.9540   -6.3657   -0.2077 H   0  0  0  0  0  0  0  0  0  0  0  0
   -2.3914   -6.1167   -2.2360 H   0  0  0  0  0  0  0  0  0  0  0  0
   -2.8526   -3.9011   -3.1961 H   0  0  0  0  0  0  0  0  0  0  0  0
   -1.8942   -1.8373   -2.1985 H   0  0  0  0  0  0  0  0  0  0  0  0
    1.3007   -1.9470    2.1997 C   0  0  0  0  0  0  0  0  0  0  0  0
    1.4955   -2.6280    3.0617 H   0  0  0  0  0  0  0  0  0  0  0  0
    2.2979   -1.6422    1.7853 H   0  0  0  0  0  0  0  0  0  0  0  0
    0.1247    1.9613   -0.2624 N   0  0  0  0  0  0  0  0  0  0  0  0
   -0.4808    2.8147    0.6894 C   0  0  0  0  0  0  0  0  0  0  0  0
   -0.2370    4.1476    0.3868 C   0  0  0  0  0  0  0  0  0  0  0  0
    0.5656    4.1643   -0.8024 C   0  0  0  0  0  0  0  0  0  0  0  0
    1.1228    5.1978   -1.5801 C   0  0  0  0  0  0  0  0  0  0  0  0
    1.8987    4.8623   -2.6743 C   0  0  0  0  0  0  0  0  0  0  0  0
    2.1497    3.5050   -3.0102 C   0  0  0  0  0  0  0  0  0  0  0  0
    1.6190    2.4624   -2.2733 C   0  0  0  0  0  0  0  0  0  0  0  0
    0.7978    2.7912   -1.1717 C   0  0  0  0  0  0  0  0  0  0  0  0
   -0.5690    5.0118    0.9214 H   0  0  0  0  0  0  0  0  0  0  0  0
    0.9393    6.2350   -1.3108 H   0  0  0  0  0  0  0  0  0  0  0  0
    2.3378    5.6407   -3.2940 H   0  0  0  0  0  0  0  0  0  0  0  0
    2.7841    3.2928   -3.8702 H   0  0  0  0  0  0  0  0  0  0  0  0
    1.8484    1.4314   -2.5162 H   0  0  0  0  0  0  0  0  0  0  0  0
   -1.2614    2.2964    1.8592 C   0  0  0  0  0  0  0  0  0  0  0  0
   -1.4407    3.1150    2.5958 H   0  0  0  0  0  0  0  0  0  0  0  0
   -2.2659    1.9269    1.5222 H   0  0  0  0  0  0  0  0  0  0  0  0
  2  3  3  0  0  0  0
  1  2  1  0  0  0  0
  5  4  1  0  0  0  0
  6  5  1  0  0  0  0
  7  6  2  0  0  0  0
  7  8  1  0  0  0  0
  8  4  1  0  0  0  0
  1  4  1  0  0  0  0
  6  9  1  0  0  0  0
  7 10  1  0  0  0  0
 12 11  1  0  0  0  0
 13 12  2  0  0  0  0
 14 13  1  0  0  0  0
 14 19  1  0  0  0  0
 15 14  2  0  0  0  0
 16 15  1  0  0  0  0
 17 16  2  0  0  0  0
 18 17  1  0  0  0  0
 18 19  2  0  0  0  0
 19 11  1  0  0  0  0
 20 13  1  0  0  0  0
 21 15  1  0  0  0  0
 22 16  1  0  0  0  0
 23 17  1  0  0  0  0
 24 18  1  0  0  0  0
  1 11  1  0  0  0  0
 25 26  1  0  0  0  0
 25 27  1  0  0  0  0
 12 25  1  0  0  0  0
 29 28  1  0  0  0  0
 30 29  2  0  0  0  0
 31 30  1  0  0  0  0
 31 36  1  0  0  0  0
 32 31  2  0  0  0  0
 33 32  1  0  0  0  0
 34 33  2  0  0  0  0
 35 34  1  0  0  0  0
 35 36  2  0  0  0  0
 36 28  1  0  0  0  0
 37 30  1  0  0  0  0
 38 32  1  0  0  0  0
 39 33  1  0  0  0  0
 40 34  1  0  0  0  0
 41 35  1  0  0  0  0
  1 28  1  0  0  0  0
 42 43  1  0  0  0  0
 42 44  1  0  0  0  0
 29 42  1  0  0  0  0
 42  8  1  0  0  0  0
 25  5  1  0  0  0  0
M  END
> <PM6_ENERGY>
508.296

> <UID>
FRTSPXKDMSJLSJ-RBIJYHFHNA-N

> <FITNESS>
1.14609

> <GCODE>
6705

> <GraphENC>
6705 321421_1_0,321422_63_1,321423_79_1,321424_79_1,321425_75_1,321426_1_2,321427_75_1,321428_1_2,321429_67_1,321430_67_1,321431_80_1,321432_80_1, 321421_2_321422_0_SINGLE_scaff:0_MImidazolylidene:1,321422_1_321423_0_SINGLE_LImidazolylideneSubNL:0_ATplus:0,321422_4_321424_0_SINGLE_LImidazolylideneSubNL:0_ATplus:0,321421_1_321425_0_SINGLE_Xlig:0_Xlig:1,321422_2_321426_0_SINGLE_LImidazolylideneSubCS:0_hyd:1,321421_0_321427_0_SINGLE_Xlig:0_Xlig:1,321422_3_321428_0_SINGLE_LImidazolylideneSubCS:0_hyd:1,321427_1_321429_0_SINGLE_bridge:1_bridge:0,321425_1_321430_0_SINGLE_bridge:1_bridge:0,321429_1_321431_0_SINGLE_bridge:0_ATminus:0,321430_1_321432_0_SINGLE_bridge:0_ATminus:0, DENOPTIMRing [vertices=[321423_79_1, 321422_63_1, 321421_1_0, 321425_75_1, 321430_67_1, 321432_80_1]] DENOPTIMRing [vertices=[321424_79_1, 321422_63_1, 321421_1_0, 321427_75_1, 321429_67_1, 321431_80_1]] SymmetricSet [symIds=[321423, 321424]] SymmetricSet [symIds=[321425, 321427]] SymmetricSet [symIds=[321426, 321428]] SymmetricSet [symIds=[321429, 321430]] SymmetricSet [symIds=[321431, 321432]] 

> <GraphJson>
{
  "graphId": 6705,
  "gVertices": [
    {
      "lstAPs": [
        {
          "id": 536638,
          "atomPositionNumber": 0,
          "atomPositionNumberInMol": -1,
          "apClass": {
            "rule": "Xlig",
            "subClass": 0,
            "bndTyp": "SINGLE"
          },
          "dirVec": {
            "x": -2.3339,
            "y": -0.0087,
            "z": 0.8172
          }
        },
        {
          "id": 536639,
          "atomPositionNumber": 0,
          "atomPositionNumberInMol": -1,
          "apClass": {
            "rule": "Xlig",
            "subClass": 0,
            "bndTyp": "SINGLE"
          },
          "dirVec": {
            "x": 2.336,
            "y": -5.0E-4,
            "z": 0.829
          }
        },
        {
          "id": 536640,
          "atomPositionNumber": 0,
          "atomPositionNumberInMol": -1,
          "apClass": {
            "rule": "scaff",
            "subClass": 0,
            "bndTyp": "SINGLE"
          },
          "dirVec": {
            "x": -0.0095,
            "y": 0.0046,
            "z": -1.7113
          }
        }
      ],
      "lstSymAPs": [
        {
          "symIds": [
            0,
            1
          ]
        }
      ],
      "mol": {
        "atoms": [
          {
            "elSymbol": "Pt",
            "p3d": {
              "x": -0.0098,
              "y": 0.0049,
              "z": 0.6289
            }
          },
          {
            "elSymbol": "C",
            "p3d": {
              "x": -6.0E-4,
              "y": 0.0016,
              "z": 2.5609
            }
          },
          {
            "elSymbol": "O",
            "p3d": {
              "x": 0.0025,
              "y": -0.0041,
              "z": 3.6974
            }
          },
          {
            "elSymbol": "Du",
            "p3d": {
              "x": -0.007,
              "y": 1.0013,
              "z": 0.6372
            }
          },
          {
            "elSymbol": "Du",
            "p3d": {
              "x": -0.0014,
              "y": 0.9902,
              "z": 2.5698
            }
          }
        ],
        "bonds": [
          {
            "atomIds": [
              1,
              2
            ],
            "bo": "TRIPLE"
          },
          {
            "atomIds": [
              0,
              1
            ],
            "bo": "SINGLE"
          },
          {
            "atomIds": [
              3,
              0
            ],
            "bo": "SINGLE"
          },
          {
            "atomIds": [
              4,
              1
            ],
            "bo": "SINGLE"
          }
        ]
      },
      "vertexId": 321421,
      "buildingBlockId": 0,
      "buildingBlockType": "SCAFFOLD",
      "isRCV": false,
      "properties": {
        "ATTACHMENT_POINTS": "1#Xlig:0:SINGLE:-2.3339%-0.0087%0.8172,Xlig:0:SINGLE:2.3360%-0.0005%0.8290,scaff:0:SINGLE:-0.0095%0.0046%-1.7113 ",
        "OLDVERTEXID": 153
      },
      "uniquefyingPropertyKeys": [],
      "allowedMutationTypes": [
        "DELETE",
        "EXTEND",
        "CHANGEBRANCH",
        "CHANGELINK",
        "ADDLINK",
        "DELETELINK",
        "DELETECHAIN"
      ],
      "vertexType": "MolecularFragment"
    },
    {
      "lstAPs": [
        {
          "id": 536641,
          "atomPositionNumber": 0,
          "atomPositionNumberInMol": -1,
          "apClass": {
            "rule": "MImidazolylidene",
            "subClass": 1,
            "bndTyp": "SINGLE"
          },
          "dirVec": {
            "x": -0.009793238118654938,
            "y": 0.004893238118654934,
            "z": 0.5761528175852433
          }
        },
        {
          "id": 536642,
          "atomPositionNumber": 1,
          "atomPositionNumberInMol": -1,
          "apClass": {
            "rule": "LImidazolylideneSubNL",
            "subClass": 0,
            "bndTyp": "SINGLE"
          },
          "dirVec": {
            "x": 2.1385376400018083,
            "y": -1.2920820938118114,
            "z": -2.0126980407065247
          }
        },
        {
          "id": 536643,
          "atomPositionNumber": 2,
          "atomPositionNumberInMol": -1,
          "apClass": {
            "rule": "LImidazolylideneSubCS",
            "subClass": 0,
            "bndTyp": "SINGLE"
          },
          "dirVec": {
            "x": 1.3448401215438701,
            "y": -0.9033181604791201,
            "z": -5.017679279139372
          }
        },
        {
          "id": 536644,
          "atomPositionNumber": 3,
          "atomPositionNumberInMol": -1,
          "apClass": {
            "rule": "LImidazolylideneSubCS",
            "subClass": 0,
            "bndTyp": "SINGLE"
          },
          "dirVec": {
            "x": -1.3477185878361413,
            "y": 0.8507747291978388,
            "z": -5.018441464543981
          }
        },
        {
          "id": 536645,
          "atomPositionNumber": 4,
          "atomPositionNumberInMol": -1,
          "apClass": {
            "rule": "LImidazolylideneSubNL",
            "subClass": 0,
            "bndTyp": "SINGLE"
          },
          "dirVec": {
            "x": -2.1480918912368194,
            "y": 1.2671530428764126,
            "z": -2.019672067757746
          }
        }
      ],
      "lstSymAPs": [
        {
          "symIds": [
            1,
            4
          ]
        },
        {
          "symIds": [
            2,
            3
          ]
        }
      ],
      "mol": {
        "atoms": [
          {
            "elSymbol": "C",
            "p3d": {
              "x": -0.009506761881345062,
              "y": 0.0046067618813450655,
              "z": -1.6585528175852433
            }
          },
          {
            "elSymbol": "N",
            "p3d": {
              "x": 0.9210219066924671,
              "y": -0.5768763137558393,
              "z": -2.4913283273775098
            }
          },
          {
            "elSymbol": "C",
            "p3d": {
              "x": 0.5808767650721197,
              "y": -0.37444584415157073,
              "z": -3.8247559735615355
            }
          },
          {
            "elSymbol": "C",
            "p3d": {
              "x": -0.5846862974820531,
              "y": 0.3294560187596806,
              "z": -3.824482844647925
            }
          },
          {
            "elSymbol": "N",
            "p3d": {
              "x": -0.9434229167071055,
              "y": 0.5572297196054272,
              "z": -2.48469390260145
            }
          }
        ],
        "bonds": [
          {
            "atomIds": [
              1,
              0
            ],
            "bo": "SINGLE"
          },
          {
            "atomIds": [
              2,
              1
            ],
            "bo": "SINGLE"
          },
          {
            "atomIds": [
              3,
              2
            ],
            "bo": "DOUBLE"
          },
          {
            "atomIds": [
              3,
              4
            ],
            "bo": "SINGLE"
          },
          {
            "atomIds": [
              4,
              0
            ],
            "bo": "SINGLE"
          }
        ]
      },
      "vertexId": 321422,
      "buildingBlockId": 62,
      "buildingBlockType": "FRAGMENT",
      "isRCV": false,
      "properties": {
        "ATTACHMENT_POINTS": "1#MImidazolylidene:1:SINGLE:-0.0098%0.0049%0.5762 2#LImidazolylideneSubNL:0:SINGLE:2.1385%-1.2921%-2.0127 3#LImidazolylideneSubCS:0:SINGLE:1.3448%-0.9033%-5.0177 4#LImidazolylideneSubCS:0:SINGLE:-1.3477%0.8508%-5.0184 5#LImidazolylideneSubNL:0:SINGLE:-2.1481%1.2672%-2.0197 ",
        "OLDVERTEXID": 154
      },
      "uniquefyingPropertyKeys": [],
      "allowedMutationTypes": [
        "DELETE",
        "EXTEND",
        "CHANGEBRANCH",
        "CHANGELINK",
        "ADDLINK",
        "DELETELINK",
        "DELETECHAIN"
      ],
      "vertexType": "MolecularFragment"
    },
    {
      "lstAPs": [
        {
          "id": 536646,
          "atomPositionNumber": 0,
          "atomPositionNumberInMol": -1,
          "apClass": {
            "rule": "ATplus",
            "subClass": 0,
            "bndTyp": "ANY"
          },
          "dirVec": {
            "x": 2.1385376400018083,
            "y": -1.2920820938118114,
            "z": -2.0126980407065247
          }
        }
      ],
      "lstSymAPs": [],
      "mol": {
        "atoms": [
          {
            "elSymbol": "ATP",
            "p3d": {
              "x": 2.155679833678634,
              "y": -1.3021519398639685,
              "z": -2.0059590944660464
            }
          }
        ],
        "bonds": []
      },
      "vertexId": 321423,
      "buildingBlockId": 78,
      "buildingBlockType": "FRAGMENT",
      "isRCV": true,
      "properties": {
        "ATTACHMENT_POINTS": "1#ATplus:0:ANY:2.1385%-1.2921%-2.0127 ",
        "OLDVERTEXID": 155
      },
      "uniquefyingPropertyKeys": [],
      "allowedMutationTypes": [
        "DELETE",
        "EXTEND",
        "CHANGEBRANCH",
        "CHANGELINK",
        "ADDLINK",
        "DELETELINK",
        "DELETECHAIN"
      ],
      "vertexType": "MolecularFragment"
    },
    {
      "lstAPs": [
        {
          "id": 536647,
          "atomPositionNumber": 0,
          "atomPositionNumberInMol": -1,
          "apClass": {
            "rule": "ATplus",
            "subClass": 0,
            "bndTyp": "ANY"
          },
          "dirVec": {
            "x": -2.1480918912368194,
            "y": 1.2671530428764126,
            "z": -2.019672067757746
          }
        }
      ],
      "lstSymAPs": [],
      "mol": {
        "atoms": [
          {
            "elSymbol": "ATP",
            "p3d": {
              "x": -2.1652531118529774,
              "y": 1.2772663196593277,
              "z": -2.0130475572342648
            }
          }
        ],
        "bonds": []
      },
      "vertexId": 321424,
      "buildingBlockId": 78,
      "buildingBlockType": "FRAGMENT",
      "isRCV": true,
      "properties": {
        "ATTACHMENT_POINTS": "1#ATplus:0:ANY:-2.1481%1.2672%-2.0197 ",
        "OLDVERTEXID": 156
      },
      "uniquefyingPropertyKeys": [],
      "allowedMutationTypes": [
        "DELETE",
        "EXTEND",
        "CHANGEBRANCH",
        "CHANGELINK",
        "ADDLINK",
        "DELETELINK",
        "DELETECHAIN"
      ],
      "vertexType": "MolecularFragment"
    },
    {
      "lstAPs": [
        {
          "id": 536648,
          "atomPositionNumber": 0,
          "atomPositionNumberInMol": -1,
          "apClass": {
            "rule": "Xlig",
            "subClass": 1,
            "bndTyp": "SINGLE"
          },
          "dirVec": {
            "x": 1.6157,
            "y": 4.174,
            "z": -3.9778
          }
        },
        {
          "id": 536649,
          "atomPositionNumber": 1,
          "atomPositionNumberInMol": -1,
          "apClass": {
            "rule": "bridge",
            "subClass": 1,
            "bndTyp": "SINGLE"
          },
          "dirVec": {
            "x": 1.8005,
            "y": 5.9885,
            "z": -1.6916
          }
        }
      ],
      "lstSymAPs": [],
      "mol": {
        "atoms": [
          {
            "elSymbol": "N",
            "p3d": {
              "x": 3.2459,
              "y": 5.1712,
              "z": -3.4361
            }
          },
          {
            "elSymbol": "C",
            "p3d": {
              "x": 3.1168,
              "y": 5.9027,
              "z": -2.2546
            }
          },
          {
            "elSymbol": "C",
            "p3d": {
              "x": 4.3191,
              "y": 6.5056,
              "z": -1.9234
            }
          },
          {
            "elSymbol": "C",
            "p3d": {
              "x": 5.2572,
              "y": 6.1707,
              "z": -2.9298
            }
          },
          {
            "elSymbol": "C",
            "p3d": {
              "x": 6.582,
              "y": 6.5002,
              "z": -3.1678
            }
          },
          {
            "elSymbol": "C",
            "p3d": {
              "x": 7.1905,
              "y": 6.1037,
              "z": -4.3266
            }
          },
          {
            "elSymbol": "C",
            "p3d": {
              "x": 6.49,
              "y": 5.3293,
              "z": -5.2524
            }
          },
          {
            "elSymbol": "C",
            "p3d": {
              "x": 5.1723,
              "y": 4.9274,
              "z": -5.0458
            }
          },
          {
            "elSymbol": "C",
            "p3d": {
              "x": 4.5534,
              "y": 5.34,
              "z": -3.8694
            }
          },
          {
            "elSymbol": "H",
            "p3d": {
              "x": 4.4846,
              "y": 7.0468,
              "z": -1.1588
            }
          },
          {
            "elSymbol": "H",
            "p3d": {
              "x": 7.0676,
              "y": 7.004,
              "z": -2.5242
            }
          },
          {
            "elSymbol": "H",
            "p3d": {
              "x": 8.0904,
              "y": 6.3555,
              "z": -4.5017
            }
          },
          {
            "elSymbol": "H",
            "p3d": {
              "x": 6.9258,
              "y": 5.0667,
              "z": -6.0535
            }
          },
          {
            "elSymbol": "H",
            "p3d": {
              "x": 4.714,
              "y": 4.3942,
              "z": -5.6832
            }
          }
        ],
        "bonds": [
          {
            "atomIds": [
              1,
              0
            ],
            "bo": "SINGLE"
          },
          {
            "atomIds": [
              2,
              1
            ],
            "bo": "DOUBLE"
          },
          {
            "atomIds": [
              3,
              2
            ],
            "bo": "SINGLE"
          },
          {
            "atomIds": [
              3,
              8
            ],
            "bo": "SINGLE"
          },
          {
            "atomIds": [
              4,
              3
            ],
            "bo": "DOUBLE"
          },
          {
            "atomIds": [
              5,
              4
            ],
            "bo": "SINGLE"
          },
          {
            "atomIds": [
              6,
              5
            ],
            "bo": "DOUBLE"
          },
          {
            "atomIds": [
              7,
              6
            ],
            "bo": "SINGLE"
          },
          {
            "atomIds": [
              7,
              8
            ],
            "bo": "DOUBLE"
          },
          {
            "atomIds": [
              8,
              0
            ],
            "bo": "SINGLE"
          },
          {
            "atomIds": [
              9,
              2
            ],
            "bo": "SINGLE"
          },
          {
            "atomIds": [
              10,
              4
            ],
            "bo": "SINGLE"
          },
          {
            "atomIds": [
              11,
              5
            ],
            "bo": "SINGLE"
          },
          {
            "atomIds": [
              12,
              6
            ],
            "bo": "SINGLE"
          },
          {
            "atomIds": [
              13,
              7
            ],
            "bo": "SINGLE"
          }
        ]
      },
      "vertexId": 321425,
      "buildingBlockId": 74,
      "buildingBlockType": "FRAGMENT",
      "isRCV": false,
      "properties": {
        "ATTACHMENT_POINTS": "1#Xlig:1:SINGLE:1.6157%4.1740%-3.9778 2#bridge:1:SINGLE:1.8005%5.9885%-1.6916 ",
        "OLDVERTEXID": 1331
      },
      "uniquefyingPropertyKeys": [],
      "allowedMutationTypes": [
        "DELETE",
        "EXTEND",
        "CHANGEBRANCH",
        "CHANGELINK",
        "ADDLINK",
        "DELETELINK",
        "DELETECHAIN"
      ],
      "vertexType": "MolecularFragment"
    },
    {
      "lstAPs": [
        {
          "id": 536650,
          "atomPositionNumber": 0,
          "atomPositionNumberInMol": -1,
          "apClass": {
            "rule": "hyd",
            "subClass": 1,
            "bndTyp": "SINGLE"
          },
          "dirVec": {
            "x": 0.4589,
            "y": -1.751,
            "z": 0.3869
          }
        }
      ],
      "lstSymAPs": [],
      "mol": {
        "atoms": [
          {
            "elSymbol": "H",
            "p3d": {
              "x": 0.1925,
              "y": -2.5024,
              "z": 1.1483
            }
          }
        ],
        "bonds": []
      },
      "vertexId": 321426,
      "buildingBlockId": 0,
      "buildingBlockType": "CAP",
      "isRCV": false,
      "properties": {
        "ATTACHMENT_POINTS": "1#hyd:1:SINGLE:0.4589%-1.7510%0.3869 ",
        "OLDVERTEXID": 1317
      },
      "uniquefyingPropertyKeys": [],
      "allowedMutationTypes": [
        "DELETE",
        "EXTEND",
        "CHANGEBRANCH",
        "CHANGELINK",
        "ADDLINK",
        "DELETELINK",
        "DELETECHAIN"
      ],
      "vertexType": "MolecularFragment"
    },
    {
      "lstAPs": [
        {
          "id": 536651,
          "atomPositionNumber": 0,
          "atomPositionNumberInMol": -1,
          "apClass": {
            "rule": "Xlig",
            "subClass": 1,
            "bndTyp": "SINGLE"
          },
          "dirVec": {
            "x": 1.6157,
            "y": 4.174,
            "z": -3.9778
          }
        },
        {
          "id": 536652,
          "atomPositionNumber": 1,
          "atomPositionNumberInMol": -1,
          "apClass": {
            "rule": "bridge",
            "subClass": 1,
            "bndTyp": "SINGLE"
          },
          "dirVec": {
            "x": 1.8005,
            "y": 5.9885,
            "z": -1.6916
          }
        }
      ],
      "lstSymAPs": [],
      "mol": {
        "atoms": [
          {
            "elSymbol": "N",
            "p3d": {
              "x": 3.2459,
              "y": 5.1712,
              "z": -3.4361
            }
          },
          {
            "elSymbol": "C",
            "p3d": {
              "x": 3.1168,
              "y": 5.9027,
              "z": -2.2546
            }
          },
          {
            "elSymbol": "C",
            "p3d": {
              "x": 4.3191,
              "y": 6.5056,
              "z": -1.9234
            }
          },
          {
            "elSymbol": "C",
            "p3d": {
              "x": 5.2572,
              "y": 6.1707,
              "z": -2.9298
            }
          },
          {
            "elSymbol": "C",
            "p3d": {
              "x": 6.582,
              "y": 6.5002,
              "z": -3.1678
            }
          },
          {
            "elSymbol": "C",
            "p3d": {
              "x": 7.1905,
              "y": 6.1037,
              "z": -4.3266
            }
          },
          {
            "elSymbol": "C",
            "p3d": {
              "x": 6.49,
              "y": 5.3293,
              "z": -5.2524
            }
          },
          {
            "elSymbol": "C",
            "p3d": {
              "x": 5.1723,
              "y": 4.9274,
              "z": -5.0458
            }
          },
          {
            "elSymbol": "C",
            "p3d": {
              "x": 4.5534,
              "y": 5.34,
              "z": -3.8694
            }
          },
          {
            "elSymbol": "H",
            "p3d": {
              "x": 4.4846,
              "y": 7.0468,
              "z": -1.1588
            }
          },
          {
            "elSymbol": "H",
            "p3d": {
              "x": 7.0676,
              "y": 7.004,
              "z": -2.5242
            }
          },
          {
            "elSymbol": "H",
            "p3d": {
              "x": 8.0904,
              "y": 6.3555,
              "z": -4.5017
            }
          },
          {
            "elSymbol": "H",
            "p3d": {
              "x": 6.9258,
              "y": 5.0667,
              "z": -6.0535
            }
          },
          {
            "elSymbol": "H",
            "p3d": {
              "x": 4.714,
              "y": 4.3942,
              "z": -5.6832
            }
          }
        ],
        "bonds": [
          {
            "atomIds": [
              1,
              0
            ],
            "bo": "SINGLE"
          },
          {
            "atomIds": [
              2,
              1
            ],
            "bo": "DOUBLE"
          },
          {
            "atomIds": [
              3,
              2
            ],
            "bo": "SINGLE"
          },
          {
            "atomIds": [
              3,
              8
            ],
            "bo": "SINGLE"
          },
          {
            "atomIds": [
              4,
              3
            ],
            "bo": "DOUBLE"
          },
          {
            "atomIds": [
              5,
              4
            ],
            "bo": "SINGLE"
          },
          {
            "atomIds": [
              6,
              5
            ],
            "bo": "DOUBLE"
          },
          {
            "atomIds": [
              7,
              6
            ],
            "bo": "SINGLE"
          },
          {
            "atomIds": [
              7,
              8
            ],
            "bo": "DOUBLE"
          },
          {
            "atomIds": [
              8,
              0
            ],
            "bo": "SINGLE"
          },
          {
            "atomIds": [
              9,
              2
            ],
            "bo": "SINGLE"
          },
          {
            "atomIds": [
              10,
              4
            ],
            "bo": "SINGLE"
          },
          {
            "atomIds": [
              11,
              5
            ],
            "bo": "SINGLE"
          },
          {
            "atomIds": [
              12,
              6
            ],
            "bo": "SINGLE"
          },
          {
            "atomIds": [
              13,
              7
            ],
            "bo": "SINGLE"
          }
        ]
      },
      "vertexId": 321427,
      "buildingBlockId": 74,
      "buildingBlockType": "FRAGMENT",
      "isRCV": false,
      "properties": {
        "ATTACHMENT_POINTS": "1#Xlig:1:SINGLE:1.6157%4.1740%-3.9778 2#bridge:1:SINGLE:1.8005%5.9885%-1.6916 ",
        "OLDVERTEXID": 1311
      },
      "uniquefyingPropertyKeys": [],
      "allowedMutationTypes": [
        "DELETE",
        "EXTEND",
        "CHANGEBRANCH",
        "CHANGELINK",
        "ADDLINK",
        "DELETELINK",
        "DELETECHAIN"
      ],
      "vertexType": "MolecularFragment"
    },
    {
      "lstAPs": [
        {
          "id": 536653,
          "atomPositionNumber": 0,
          "atomPositionNumberInMol": -1,
          "apClass": {
            "rule": "hyd",
            "subClass": 1,
            "bndTyp": "SINGLE"
          },
          "dirVec": {
            "x": 0.4589,
            "y": -1.751,
            "z": 0.3869
          }
        }
      ],
      "lstSymAPs": [],
      "mol": {
        "atoms": [
          {
            "elSymbol": "H",
            "p3d": {
              "x": 0.1925,
              "y": -2.5024,
              "z": 1.1483
            }
          }
        ],
        "bonds": []
      },
      "vertexId": 321428,
      "buildingBlockId": 0,
      "buildingBlockType": "CAP",
      "isRCV": false,
      "properties": {
        "ATTACHMENT_POINTS": "1#hyd:1:SINGLE:0.4589%-1.7510%0.3869 ",
        "OLDVERTEXID": 1330
      },
      "uniquefyingPropertyKeys": [],
      "allowedMutationTypes": [
        "DELETE",
        "EXTEND",
        "CHANGEBRANCH",
        "CHANGELINK",
        "ADDLINK",
        "DELETELINK",
        "DELETECHAIN"
      ],
      "vertexType": "MolecularFragment"
    },
    {
      "lstAPs": [
        {
          "id": 536654,
          "atomPositionNumber": 0,
          "atomPositionNumberInMol": -1,
          "apClass": {
            "rule": "bridge",
            "subClass": 0,
            "bndTyp": "SINGLE"
          },
          "dirVec": {
            "x": -1.0417,
            "y": -0.7693,
            "z": 0.07320000000000002
          }
        },
        {
          "id": 536655,
          "atomPositionNumber": 0,
          "atomPositionNumberInMol": -1,
          "apClass": {
            "rule": "bridge",
            "subClass": 0,
            "bndTyp": "SINGLE"
          },
          "dirVec": {
            "x": 1.2664,
            "y": -1.9999999999997797E-4,
            "z": 0.2522
          }
        }
      ],
      "lstSymAPs": [
        {
          "symIds": [
            0,
            1
          ]
        }
      ],
      "mol": {
        "atoms": [
          {
            "elSymbol": "C",
            "p3d": {
              "x": 0.4112,
              "y": -1.2101,
              "z": -0.1993
            }
          },
          {
            "elSymbol": "H",
            "p3d": {
              "x": 0.6587,
              "y": -2.0933,
              "z": 0.3897
            }
          },
          {
            "elSymbol": "H",
            "p3d": {
              "x": 0.5577,
              "y": -1.4056,
              "z": -1.2616
            }
          }
        ],
        "bonds": [
          {
            "atomIds": [
              0,
              1
            ],
            "bo": "SINGLE"
          },
          {
            "atomIds": [
              0,
              2
            ],
            "bo": "SINGLE"
          }
        ]
      },
      "vertexId": 321429,
      "buildingBlockId": 66,
      "buildingBlockType": "FRAGMENT",
      "isRCV": false,
      "properties": {
        "ATTACHMENT_POINTS": "1#bridge:0:SINGLE:-1.0417%-0.7693%0.0732,bridge:0:SINGLE:1.2664%-0.0002%0.2522 ",
        "OLDVERTEXID": 32384
      },
      "uniquefyingPropertyKeys": [],
      "allowedMutationTypes": [
        "DELETE",
        "EXTEND",
        "CHANGEBRANCH",
        "CHANGELINK",
        "ADDLINK",
        "DELETELINK",
        "DELETECHAIN"
      ],
      "vertexType": "MolecularFragment"
    },
    {
      "lstAPs": [
        {
          "id": 536656,
          "atomPositionNumber": 0,
          "atomPositionNumberInMol": -1,
          "apClass": {
            "rule": "bridge",
            "subClass": 0,
            "bndTyp": "SINGLE"
          },
          "dirVec": {
            "x": -1.0417,
            "y": -0.7693,
            "z": 0.07320000000000002
          }
        },
        {
          "id": 536657,
          "atomPositionNumber": 0,
          "atomPositionNumberInMol": -1,
          "apClass": {
            "rule": "bridge",
            "subClass": 0,
            "bndTyp": "SINGLE"
          },
          "dirVec": {
            "x": 1.2664,
            "y": -1.9999999999997797E-4,
            "z": 0.2522
          }
        }
      ],
      "lstSymAPs": [
        {
          "symIds": [
            0,
            1
          ]
        }
      ],
      "mol": {
        "atoms": [
          {
            "elSymbol": "C",
            "p3d": {
              "x": 0.4112,
              "y": -1.2101,
              "z": -0.1993
            }
          },
          {
            "elSymbol": "H",
            "p3d": {
              "x": 0.6587,
              "y": -2.0933,
              "z": 0.3897
            }
          },
          {
            "elSymbol": "H",
            "p3d": {
              "x": 0.5577,
              "y": -1.4056,
              "z": -1.2616
            }
          }
        ],
        "bonds": [
          {
            "atomIds": [
              0,
              1
            ],
            "bo": "SINGLE"
          },
          {
            "atomIds": [
              0,
              2
            ],
            "bo": "SINGLE"
          }
        ]
      },
      "vertexId": 321430,
      "buildingBlockId": 66,
      "buildingBlockType": "FRAGMENT",
      "isRCV": false,
      "properties": {
        "ATTACHMENT_POINTS": "1#bridge:0:SINGLE:-1.0417%-0.7693%0.0732,bridge:0:SINGLE:1.2664%-0.0002%0.2522 ",
        "OLDVERTEXID": 32324
      },
      "uniquefyingPropertyKeys": [],
      "allowedMutationTypes": [
        "DELETE",
        "EXTEND",
        "CHANGEBRANCH",
        "CHANGELINK",
        "ADDLINK",
        "DELETELINK",
        "DELETECHAIN"
      ],
      "vertexType": "MolecularFragment"
    },
    {
      "lstAPs": [
        {
          "id": 536658,
          "atomPositionNumber": 0,
          "atomPositionNumberInMol": -1,
          "apClass": {
            "rule": "ATminus",
            "subClass": 0,
            "bndTyp": "ANY"
          },
          "dirVec": {
            "x": 0.0109,
            "y": -0.0071,
            "z": 0.0026
          }
        }
      ],
      "lstSymAPs": [],
      "mol": {
        "atoms": [
          {
            "elSymbol": "ATM",
            "p3d": {
              "x": -0.0096,
              "y": 0.0045,
              "z": -0.0011
            }
          }
        ],
        "bonds": []
      },
      "vertexId": 321431,
      "buildingBlockId": 79,
      "buildingBlockType": "FRAGMENT",
      "isRCV": true,
      "properties": {
        "ATTACHMENT_POINTS": "1#ATminus:0:ANY:0.0109%-0.0071%0.0026 ",
        "OLDVERTEXID": 321172
      },
      "uniquefyingPropertyKeys": [],
      "allowedMutationTypes": [
        "DELETE",
        "EXTEND",
        "CHANGEBRANCH",
        "CHANGELINK",
        "ADDLINK",
        "DELETELINK",
        "DELETECHAIN"
      ],
      "vertexType": "MolecularFragment"
    },
    {
      "lstAPs": [
        {
          "id": 536659,
          "atomPositionNumber": 0,
          "atomPositionNumberInMol": -1,
          "apClass": {
            "rule": "ATminus",
            "subClass": 0,
            "bndTyp": "ANY"
          },
          "dirVec": {
            "x": 0.0109,
            "y": -0.0071,
            "z": 0.0026
          }
        }
      ],
      "lstSymAPs": [],
      "mol": {
        "atoms": [
          {
            "elSymbol": "ATM",
            "p3d": {
              "x": -0.0096,
              "y": 0.0045,
              "z": -0.0011
            }
          }
        ],
        "bonds": []
      },
      "vertexId": 321432,
      "buildingBlockId": 79,
      "buildingBlockType": "FRAGMENT",
      "isRCV": true,
      "properties": {
        "ATTACHMENT_POINTS": "1#ATminus:0:ANY:0.0109%-0.0071%0.0026 ",
        "OLDVERTEXID": 321174
      },
      "uniquefyingPropertyKeys": [],
      "allowedMutationTypes": [
        "DELETE",
        "EXTEND",
        "CHANGEBRANCH",
        "CHANGELINK",
        "ADDLINK",
        "DELETELINK",
        "DELETECHAIN"
      ],
      "vertexType": "MolecularFragment"
    }
  ],
  "gEdges": [
    {
      "srcAPID": 536640,
      "trgAPID": 536641,
      "bondType": "SINGLE"
    },
    {
      "srcAPID": 536642,
      "trgAPID": 536646,
      "bondType": "SINGLE"
    },
    {
      "srcAPID": 536645,
      "trgAPID": 536647,
      "bondType": "SINGLE"
    },
    {
      "srcAPID": 536639,
      "trgAPID": 536648,
      "bondType": "SINGLE"
    },
    {
      "srcAPID": 536643,
      "trgAPID": 536650,
      "bondType": "SINGLE"
    },
    {
      "srcAPID": 536638,
      "trgAPID": 536651,
      "bondType": "SINGLE"
    },
    {
      "srcAPID": 536644,
      "trgAPID": 536653,
      "bondType": "SINGLE"
    },
    {
      "srcAPID": 536652,
      "trgAPID": 536654,
      "bondType": "SINGLE"
    },
    {
      "srcAPID": 536649,
      "trgAPID": 536656,
      "bondType": "SINGLE"
    },
    {
      "srcAPID": 536655,
      "trgAPID": 536658,
      "bondType": "SINGLE"
    },
    {
      "srcAPID": 536657,
      "trgAPID": 536659,
      "bondType": "SINGLE"
    }
  ],
  "gRings": [
    {
      "vertices": [
        321423,
        321422,
        321421,
        321425,
        321430,
        321432
      ],
      "bndTyp": "SINGLE"
    },
    {
      "vertices": [
        321424,
        321422,
        321421,
        321427,
        321429,
        321431
      ],
      "bndTyp": "SINGLE"
    }
  ],
  "symVertices": [
    {
      "symIds": [
        321423,
        321424
      ]
    },
    {
      "symIds": [
        321425,
        321427
      ]
    },
    {
      "symIds": [
        321426,
        321428
      ]
    },
    {
      "symIds": [
        321429,
        321430
      ]
    },
    {
      "symIds": [
        321431,
        321432
      ]
    }
  ]
}

> <SMILES>
[Pt]12(C#O)[C]3N(C(=C(N3C([H])([H])C=4N1C=5C(C4[H])=C(C(=C(C5[H])[H])[H])[H])[H])[H])C([H])([H])C=6N2C=7C(C6[H])=C(C(=C(C7[H])[H])[H])[H]

$$$$
