M20003938
  CDK     05042206493D

 30 32  0  0  0  0  0  0  0  0999 V2000
   -1.8049    0.0077   -0.7502 Pt  0  0  0  0  0  0  0  0  0  0  0  0
   -3.7785    0.0240   -0.7679 C   0  0  0  0  0  0  0  0  0  0  0  0
   -4.9196    0.0395   -0.7659 O   0  0  0  0  0  0  0  0  0  0  0  0
    1.9463   -0.8494    1.2881 C   0  0  0  0  0  0  0  0  0  0  0  0
    2.9960   -0.9622    0.9192 H   0  0  0  0  0  0  0  0  0  0  0  0
    1.8871   -1.4571    2.2156 H   0  0  0  0  0  0  0  0  0  0  0  0
    1.6527    0.6445    1.6052 C   0  0  0  0  0  0  0  0  0  0  0  0
    1.0874    0.7341    2.5583 H   0  0  0  0  0  0  0  0  0  0  0  0
    2.6124    1.1921    1.7618 H   0  0  0  0  0  0  0  0  0  0  0  0
    1.0665   -1.4019    0.2101 N   0  0  2  0  0  0  0  0  0  0  0  0
    0.9637    1.3250    0.4583 N   0  0  1  0  0  0  0  0  0  0  0  0
    0.4344    0.0247   -0.6363 P   0  0  0  0  0  0  0  0  0  0  0  0
    1.3831    0.2084   -2.2216 C   0  0  0  0  0  0  0  0  0  0  0  0
    0.9802    1.0364   -2.8275 H   0  0  0  0  0  0  0  0  0  0  0  0
    1.3230   -0.7109   -2.8255 H   0  0  0  0  0  0  0  0  0  0  0  0
    2.4469    0.4184   -2.0337 H   0  0  0  0  0  0  0  0  0  0  0  0
   -2.0487   -2.0229   -0.6802 O   0  0  0  0  0  0  0  0  0  0  0  0
   -0.0489   -2.2806    0.6925 C   0  0  0  0  0  0  0  0  0  0  0  0
   -0.8988   -2.7959   -0.4963 C   0  0  0  0  0  0  0  0  0  0  0  0
   -0.7249   -1.8044    1.4410 H   0  0  0  0  0  0  0  0  0  0  0  0
    0.4234   -3.1504    1.2040 H   0  0  0  0  0  0  0  0  0  0  0  0
   -0.3262   -2.8429   -1.4434 H   0  0  0  0  0  0  0  0  0  0  0  0
   -1.2840   -3.8140   -0.2714 H   0  0  0  0  0  0  0  0  0  0  0  0
   -1.9917    2.0471   -0.7967 O   0  0  0  0  0  0  0  0  0  0  0  0
   -0.1988    2.1823    0.8654 C   0  0  0  0  0  0  0  0  0  0  0  0
   -0.8964    2.8046   -0.3692 C   0  0  0  0  0  0  0  0  0  0  0  0
    0.2150    3.0016    1.4977 H   0  0  0  0  0  0  0  0  0  0  0  0
   -0.9635    1.6569    1.4871 H   0  0  0  0  0  0  0  0  0  0  0  0
   -1.3306    3.7913   -0.0982 H   0  0  0  0  0  0  0  0  0  0  0  0
   -0.2026    2.9541   -1.2203 H   0  0  0  0  0  0  0  0  0  0  0  0
  2  3  3  0  0  0  0
  1  2  1  0  0  0  0
  4  5  1  0  0  0  0
  4 10  1  0  0  0  0
  6  4  1  0  0  0  0
  7  4  1  0  0  0  0
  8  7  1  0  0  0  0
  9  7  1  0  0  0  0
 10 12  1  0  0  0  0
 11  7  1  0  0  0  0
 11 12  1  0  0  0  0
  1 12  1  0  0  0  0
 14 13  1  0  0  0  0
 15 13  1  0  0  0  0
 16 13  1  0  0  0  0
 12 13  1  0  0  0  0
  1 17  1  0  0  0  0
 18 19  1  0  0  0  0
 18 20  1  0  0  0  0
 18 21  1  0  0  0  0
 19 22  1  0  0  0  0
 19 23  1  0  0  0  0
 17 19  1  0  0  0  0
  1 24  1  0  0  0  0
 25 26  1  0  0  0  0
 25 27  1  0  0  0  0
 25 28  1  0  0  0  0
 26 29  1  0  0  0  0
 26 30  1  0  0  0  0
 24 26  1  0  0  0  0
 11 25  1  0  0  0  0
 10 18  1  0  0  0  0
M  END
> <PM6_ENERGY>
-426.845

> <UID>
NGJAHOJSURKYBX-BMNAYNNVNA-N

> <FITNESS>
1.14121

> <GCODE>
9764

> <GraphENC>
9764 495069_1_0,495070_2_1,495071_79_1,495072_79_1,495073_73_1,495074_73_1,495075_2_2,495076_66_1,495077_66_1,495078_80_1,495079_80_1, 495069_2_495070_3_SINGLE_scaff:0_MBisAminoPhosphine:1,495070_1_495071_0_SINGLE_LCycloBisAminoPhosphineSubN:0_ATplus:0,495070_0_495072_0_SINGLE_LCycloBisAminoPhosphineSubN:0_ATplus:0,495069_1_495073_0_SINGLE_Xlig:0_Xlig:1,495069_0_495074_0_SINGLE_Xlig:0_Xlig:1,495070_2_495075_0_SINGLE_LBisAminoPhosphineSubR:0_me:1,495073_1_495076_0_SINGLE_bridge:1_bridge:0,495074_1_495077_0_SINGLE_bridge:1_bridge:0,495076_1_495078_0_SINGLE_bridge:0_ATminus:0,495077_1_495079_0_SINGLE_bridge:0_ATminus:0, DENOPTIMRing [vertices=[495071_79_1, 495070_2_1, 495069_1_0, 495074_73_1, 495077_66_1, 495079_80_1]] DENOPTIMRing [vertices=[495072_79_1, 495070_2_1, 495069_1_0, 495073_73_1, 495076_66_1, 495078_80_1]] SymmetricSet [symIds=[495071, 495072]] SymmetricSet [symIds=[495073, 495074]] SymmetricSet [symIds=[495076, 495077]] SymmetricSet [symIds=[495078, 495079]] 

> <GraphJson>
{
  "graphId": 9764,
  "gVertices": [
    {
      "lstAPs": [
        {
          "id": 826272,
          "atomPositionNumber": 0,
          "atomPositionNumberInMol": -1,
          "apClass": {
            "rule": "Xlig",
            "subClass": 0,
            "bndTyp": "SINGLE"
          },
          "dirVec": {
            "x": -2.3339,
            "y": -0.0087,
            "z": 0.8172
          }
        },
        {
          "id": 826273,
          "atomPositionNumber": 0,
          "atomPositionNumberInMol": -1,
          "apClass": {
            "rule": "Xlig",
            "subClass": 0,
            "bndTyp": "SINGLE"
          },
          "dirVec": {
            "x": 2.336,
            "y": -5.0E-4,
            "z": 0.829
          }
        },
        {
          "id": 826274,
          "atomPositionNumber": 0,
          "atomPositionNumberInMol": -1,
          "apClass": {
            "rule": "scaff",
            "subClass": 0,
            "bndTyp": "SINGLE"
          },
          "dirVec": {
            "x": -0.0095,
            "y": 0.0046,
            "z": -1.7113
          }
        }
      ],
      "lstSymAPs": [
        {
          "symIds": [
            0,
            1
          ]
        }
      ],
      "mol": {
        "atoms": [
          {
            "elSymbol": "Pt",
            "p3d": {
              "x": -0.0098,
              "y": 0.0049,
              "z": 0.6289
            }
          },
          {
            "elSymbol": "C",
            "p3d": {
              "x": -6.0E-4,
              "y": 0.0016,
              "z": 2.5609
            }
          },
          {
            "elSymbol": "O",
            "p3d": {
              "x": 0.0025,
              "y": -0.0041,
              "z": 3.6974
            }
          },
          {
            "elSymbol": "Du",
            "p3d": {
              "x": -0.007,
              "y": 1.0013,
              "z": 0.6372
            }
          },
          {
            "elSymbol": "Du",
            "p3d": {
              "x": -0.0014,
              "y": 0.9902,
              "z": 2.5698
            }
          }
        ],
        "bonds": [
          {
            "atomIds": [
              1,
              2
            ],
            "bo": "TRIPLE"
          },
          {
            "atomIds": [
              0,
              1
            ],
            "bo": "SINGLE"
          },
          {
            "atomIds": [
              3,
              0
            ],
            "bo": "SINGLE"
          },
          {
            "atomIds": [
              4,
              1
            ],
            "bo": "SINGLE"
          }
        ]
      },
      "vertexId": 495069,
      "buildingBlockId": 0,
      "buildingBlockType": "SCAFFOLD",
      "isRCV": false,
      "properties": {
        "ATTACHMENT_POINTS": "1#Xlig:0:SINGLE:-2.3339%-0.0087%0.8172,Xlig:0:SINGLE:2.3360%-0.0005%0.8290,scaff:0:SINGLE:-0.0095%0.0046%-1.7113 ",
        "OLDVERTEXID": 161
      },
      "uniquefyingPropertyKeys": [],
      "allowedMutationTypes": [
        "DELETE",
        "EXTEND",
        "CHANGEBRANCH",
        "CHANGELINK",
        "ADDLINK",
        "DELETELINK",
        "DELETECHAIN"
      ],
      "vertexType": "MolecularFragment"
    },
    {
      "lstAPs": [
        {
          "id": 826275,
          "atomPositionNumber": 6,
          "atomPositionNumberInMol": -1,
          "apClass": {
            "rule": "LCycloBisAminoPhosphineSubN",
            "subClass": 0,
            "bndTyp": "SINGLE"
          },
          "dirVec": {
            "x": 2.4643006755553873,
            "y": 1.2468716069052097,
            "z": -1.9747445793829592
          }
        },
        {
          "id": 826276,
          "atomPositionNumber": 7,
          "atomPositionNumberInMol": -1,
          "apClass": {
            "rule": "LCycloBisAminoPhosphineSubN",
            "subClass": 0,
            "bndTyp": "SINGLE"
          },
          "dirVec": {
            "x": -2.667318572597261,
            "y": 0.7861314432966159,
            "z": -2.257537266040838
          }
        },
        {
          "id": 826277,
          "atomPositionNumber": 8,
          "atomPositionNumberInMol": -1,
          "apClass": {
            "rule": "LBisAminoPhosphineSubR",
            "subClass": 0,
            "bndTyp": "SINGLE"
          },
          "dirVec": {
            "x": -0.039239605339551384,
            "y": -1.7383442342568314,
            "z": -2.2805275965891076
          }
        },
        {
          "id": 826278,
          "atomPositionNumber": 8,
          "atomPositionNumberInMol": -1,
          "apClass": {
            "rule": "MBisAminoPhosphine",
            "subClass": 1,
            "bndTyp": "SINGLE"
          },
          "dirVec": {
            "x": -0.009790409017403273,
            "y": 0.004890409017403152,
            "z": 0.5540839417569379
          }
        }
      ],
      "lstSymAPs": [
        {
          "symIds": [
            0,
            1
          ]
        }
      ],
      "mol": {
        "atoms": [
          {
            "elSymbol": "C",
            "p3d": {
              "x": 0.695923955864642,
              "y": 1.301301510383336,
              "z": -3.786275761246294
            }
          },
          {
            "elSymbol": "H",
            "p3d": {
              "x": 0.7890953912753949,
              "y": 0.5398623367073316,
              "z": -4.559843863235449
            }
          },
          {
            "elSymbol": "H",
            "p3d": {
              "x": 1.2369865388567785,
              "y": 2.19869356939361,
              "z": -4.092313199660583
            }
          },
          {
            "elSymbol": "C",
            "p3d": {
              "x": -0.767092363402958,
              "y": 1.6305799666394032,
              "z": -3.560861924487552
            }
          },
          {
            "elSymbol": "H",
            "p3d": {
              "x": -0.8976241855742316,
              "y": 2.692197960691883,
              "z": -3.2742071179612435
            }
          },
          {
            "elSymbol": "H",
            "p3d": {
              "x": -1.3437529063162965,
              "y": 1.4776908163419515,
              "z": -4.4700755935270235
            }
          },
          {
            "elSymbol": "N",
            "p3d": {
              "x": 1.1855492631593463,
              "y": 0.8099717319400803,
              "z": -2.4687619824676914
            }
          },
          {
            "elSymbol": "N",
            "p3d": {
              "x": -1.2551557284633874,
              "y": 0.759938171703057,
              "z": -2.487367538570274
            }
          },
          {
            "elSymbol": "P",
            "p3d": {
              "x": -0.009509590982596726,
              "y": 0.004609590982596848,
              "z": -1.636483941756938
            }
          }
        ],
        "bonds": [
          {
            "atomIds": [
              0,
              1
            ],
            "bo": "SINGLE"
          },
          {
            "atomIds": [
              0,
              6
            ],
            "bo": "SINGLE"
          },
          {
            "atomIds": [
              2,
              0
            ],
            "bo": "SINGLE"
          },
          {
            "atomIds": [
              3,
              0
            ],
            "bo": "SINGLE"
          },
          {
            "atomIds": [
              4,
              3
            ],
            "bo": "SINGLE"
          },
          {
            "atomIds": [
              5,
              3
            ],
            "bo": "SINGLE"
          },
          {
            "atomIds": [
              6,
              8
            ],
            "bo": "SINGLE"
          },
          {
            "atomIds": [
              7,
              3
            ],
            "bo": "SINGLE"
          },
          {
            "atomIds": [
              7,
              8
            ],
            "bo": "SINGLE"
          }
        ]
      },
      "vertexId": 495070,
      "buildingBlockId": 1,
      "buildingBlockType": "FRAGMENT",
      "isRCV": false,
      "properties": {
        "ATTACHMENT_POINTS": "7#LCycloBisAminoPhosphineSubN:0:SINGLE:2.4643%1.2469%-1.9747 8#LCycloBisAminoPhosphineSubN:0:SINGLE:-2.6673%0.7861%-2.2575 9#LBisAminoPhosphineSubR:0:SINGLE:-0.0392%-1.7383%-2.2805,MBisAminoPhosphine:1:SINGLE:-0.0098%0.0049%0.5541 ",
        "OLDVERTEXID": 162
      },
      "uniquefyingPropertyKeys": [],
      "allowedMutationTypes": [
        "DELETE",
        "EXTEND",
        "CHANGEBRANCH",
        "CHANGELINK",
        "ADDLINK",
        "DELETELINK",
        "DELETECHAIN"
      ],
      "vertexType": "MolecularFragment"
    },
    {
      "lstAPs": [
        {
          "id": 826279,
          "atomPositionNumber": 0,
          "atomPositionNumberInMol": -1,
          "apClass": {
            "rule": "ATplus",
            "subClass": 0,
            "bndTyp": "ANY"
          },
          "dirVec": {
            "x": -2.667318572597261,
            "y": 0.7861314432966159,
            "z": -2.257537266040838
          }
        }
      ],
      "lstSymAPs": [],
      "mol": {
        "atoms": [
          {
            "elSymbol": "ATP",
            "p3d": {
              "x": -2.688034629340082,
              "y": 0.786515691687562,
              "z": -2.2541657165154305
            }
          }
        ],
        "bonds": []
      },
      "vertexId": 495071,
      "buildingBlockId": 78,
      "buildingBlockType": "FRAGMENT",
      "isRCV": true,
      "properties": {
        "ATTACHMENT_POINTS": "1#ATplus:0:ANY:-2.6673%0.7861%-2.2575 ",
        "OLDVERTEXID": 163
      },
      "uniquefyingPropertyKeys": [],
      "allowedMutationTypes": [
        "DELETE",
        "EXTEND",
        "CHANGEBRANCH",
        "CHANGELINK",
        "ADDLINK",
        "DELETELINK",
        "DELETECHAIN"
      ],
      "vertexType": "MolecularFragment"
    },
    {
      "lstAPs": [
        {
          "id": 826280,
          "atomPositionNumber": 0,
          "atomPositionNumberInMol": -1,
          "apClass": {
            "rule": "ATplus",
            "subClass": 0,
            "bndTyp": "ANY"
          },
          "dirVec": {
            "x": 2.4643006755553873,
            "y": 1.2468716069052097,
            "z": -1.9747445793829592
          }
        }
      ],
      "lstSymAPs": [],
      "mol": {
        "atoms": [
          {
            "elSymbol": "ATP",
            "p3d": {
              "x": 2.4829577276549566,
              "y": 1.2532459996530905,
              "z": -1.9675368388181411
            }
          }
        ],
        "bonds": []
      },
      "vertexId": 495072,
      "buildingBlockId": 78,
      "buildingBlockType": "FRAGMENT",
      "isRCV": true,
      "properties": {
        "ATTACHMENT_POINTS": "1#ATplus:0:ANY:2.4643%1.2469%-1.9747 ",
        "OLDVERTEXID": 164
      },
      "uniquefyingPropertyKeys": [],
      "allowedMutationTypes": [
        "DELETE",
        "EXTEND",
        "CHANGEBRANCH",
        "CHANGELINK",
        "ADDLINK",
        "DELETELINK",
        "DELETECHAIN"
      ],
      "vertexType": "MolecularFragment"
    },
    {
      "lstAPs": [
        {
          "id": 826281,
          "atomPositionNumber": 0,
          "atomPositionNumberInMol": -1,
          "apClass": {
            "rule": "Xlig",
            "subClass": 1,
            "bndTyp": "SINGLE"
          },
          "dirVec": {
            "x": -0.1753,
            "y": 0.0948,
            "z": -0.4464
          }
        },
        {
          "id": 826282,
          "atomPositionNumber": 0,
          "atomPositionNumberInMol": -1,
          "apClass": {
            "rule": "bridge",
            "subClass": 1,
            "bndTyp": "SINGLE"
          },
          "dirVec": {
            "x": -0.5345,
            "y": 2.7646,
            "z": 0.48009999999999997
          }
        }
      ],
      "lstSymAPs": [],
      "mol": {
        "atoms": [
          {
            "elSymbol": "O",
            "p3d": {
              "x": -0.3534,
              "y": 2.1044,
              "z": -0.7339
            }
          }
        ],
        "bonds": []
      },
      "vertexId": 495073,
      "buildingBlockId": 72,
      "buildingBlockType": "FRAGMENT",
      "isRCV": false,
      "properties": {
        "ATTACHMENT_POINTS": "1#Xlig:1:SINGLE:-0.1753%0.0948%-0.4464,bridge:1:SINGLE:-0.5345%2.7646%0.4801 ",
        "OLDVERTEXID": 1520
      },
      "uniquefyingPropertyKeys": [],
      "allowedMutationTypes": [
        "DELETE",
        "EXTEND",
        "CHANGEBRANCH",
        "CHANGELINK",
        "ADDLINK",
        "DELETELINK",
        "DELETECHAIN"
      ],
      "vertexType": "MolecularFragment"
    },
    {
      "lstAPs": [
        {
          "id": 826283,
          "atomPositionNumber": 0,
          "atomPositionNumberInMol": -1,
          "apClass": {
            "rule": "Xlig",
            "subClass": 1,
            "bndTyp": "SINGLE"
          },
          "dirVec": {
            "x": -0.1753,
            "y": 0.0948,
            "z": -0.4464
          }
        },
        {
          "id": 826284,
          "atomPositionNumber": 0,
          "atomPositionNumberInMol": -1,
          "apClass": {
            "rule": "bridge",
            "subClass": 1,
            "bndTyp": "SINGLE"
          },
          "dirVec": {
            "x": -0.5345,
            "y": 2.7646,
            "z": 0.48009999999999997
          }
        }
      ],
      "lstSymAPs": [],
      "mol": {
        "atoms": [
          {
            "elSymbol": "O",
            "p3d": {
              "x": -0.3534,
              "y": 2.1044,
              "z": -0.7339
            }
          }
        ],
        "bonds": []
      },
      "vertexId": 495074,
      "buildingBlockId": 72,
      "buildingBlockType": "FRAGMENT",
      "isRCV": false,
      "properties": {
        "ATTACHMENT_POINTS": "1#Xlig:1:SINGLE:-0.1753%0.0948%-0.4464,bridge:1:SINGLE:-0.5345%2.7646%0.4801 ",
        "OLDVERTEXID": 1505
      },
      "uniquefyingPropertyKeys": [],
      "allowedMutationTypes": [
        "DELETE",
        "EXTEND",
        "CHANGEBRANCH",
        "CHANGELINK",
        "ADDLINK",
        "DELETELINK",
        "DELETECHAIN"
      ],
      "vertexType": "MolecularFragment"
    },
    {
      "lstAPs": [
        {
          "id": 826285,
          "atomPositionNumber": 0,
          "atomPositionNumberInMol": -1,
          "apClass": {
            "rule": "me",
            "subClass": 1,
            "bndTyp": "SINGLE"
          },
          "dirVec": {
            "x": 6.4052,
            "y": 0.4666,
            "z": 7.6784
          }
        }
      ],
      "lstSymAPs": [],
      "mol": {
        "atoms": [
          {
            "elSymbol": "C",
            "p3d": {
              "x": 5.1845,
              "y": -0.3158,
              "z": 7.9034
            }
          },
          {
            "elSymbol": "H",
            "p3d": {
              "x": 4.4018,
              "y": 0.0156,
              "z": 7.2277
            }
          },
          {
            "elSymbol": "H",
            "p3d": {
              "x": 4.8466,
              "y": -0.2064,
              "z": 8.9326
            }
          },
          {
            "elSymbol": "H",
            "p3d": {
              "x": 5.4032,
              "y": -1.3837,
              "z": 7.7252
            }
          }
        ],
        "bonds": [
          {
            "atomIds": [
              1,
              0
            ],
            "bo": "SINGLE"
          },
          {
            "atomIds": [
              2,
              0
            ],
            "bo": "SINGLE"
          },
          {
            "atomIds": [
              3,
              0
            ],
            "bo": "SINGLE"
          }
        ]
      },
      "vertexId": 495075,
      "buildingBlockId": 1,
      "buildingBlockType": "CAP",
      "isRCV": false,
      "properties": {
        "ATTACHMENT_POINTS": "1#me:1:SINGLE:6.4052%0.4666%7.6784 ",
        "OLDVERTEXID": 1518
      },
      "uniquefyingPropertyKeys": [],
      "allowedMutationTypes": [
        "DELETE",
        "EXTEND",
        "CHANGEBRANCH",
        "CHANGELINK",
        "ADDLINK",
        "DELETELINK",
        "DELETECHAIN"
      ],
      "vertexType": "MolecularFragment"
    },
    {
      "lstAPs": [
        {
          "id": 826286,
          "atomPositionNumber": 1,
          "atomPositionNumberInMol": -1,
          "apClass": {
            "rule": "bridge",
            "subClass": 0,
            "bndTyp": "SINGLE"
          },
          "dirVec": {
            "x": 0.4112,
            "y": -1.2101,
            "z": -0.19930000000000003
          }
        },
        {
          "id": 826287,
          "atomPositionNumber": 0,
          "atomPositionNumberInMol": -1,
          "apClass": {
            "rule": "bridge",
            "subClass": 0,
            "bndTyp": "SINGLE"
          },
          "dirVec": {
            "x": 0.41179999999999994,
            "y": 1.21,
            "z": -0.19930000000000003
          }
        }
      ],
      "lstSymAPs": [
        {
          "symIds": [
            0,
            1
          ]
        }
      ],
      "mol": {
        "atoms": [
          {
            "elSymbol": "C",
            "p3d": {
              "x": -1.0414,
              "y": 0.7696,
              "z": 0.0732
            }
          },
          {
            "elSymbol": "C",
            "p3d": {
              "x": -1.0417,
              "y": -0.7693,
              "z": 0.0732
            }
          },
          {
            "elSymbol": "H",
            "p3d": {
              "x": -1.6983,
              "y": 1.1431,
              "z": -0.7123
            }
          },
          {
            "elSymbol": "H",
            "p3d": {
              "x": -1.369,
              "y": 1.143,
              "z": 1.0434
            }
          },
          {
            "elSymbol": "H",
            "p3d": {
              "x": -1.3695,
              "y": -1.1425,
              "z": 1.0434
            }
          },
          {
            "elSymbol": "H",
            "p3d": {
              "x": -1.6988,
              "y": -1.1424,
              "z": -0.7123
            }
          }
        ],
        "bonds": [
          {
            "atomIds": [
              0,
              1
            ],
            "bo": "SINGLE"
          },
          {
            "atomIds": [
              0,
              2
            ],
            "bo": "SINGLE"
          },
          {
            "atomIds": [
              0,
              3
            ],
            "bo": "SINGLE"
          },
          {
            "atomIds": [
              1,
              4
            ],
            "bo": "SINGLE"
          },
          {
            "atomIds": [
              1,
              5
            ],
            "bo": "SINGLE"
          }
        ]
      },
      "vertexId": 495076,
      "buildingBlockId": 65,
      "buildingBlockType": "FRAGMENT",
      "isRCV": false,
      "properties": {
        "ATTACHMENT_POINTS": "1#bridge:0:SINGLE:0.4118%1.2100%-0.1993 2#bridge:0:SINGLE:0.4112%-1.2101%-0.1993 ",
        "OLDVERTEXID": 37214
      },
      "uniquefyingPropertyKeys": [],
      "allowedMutationTypes": [
        "DELETE",
        "EXTEND",
        "CHANGEBRANCH",
        "CHANGELINK",
        "ADDLINK",
        "DELETELINK",
        "DELETECHAIN"
      ],
      "vertexType": "MolecularFragment"
    },
    {
      "lstAPs": [
        {
          "id": 826288,
          "atomPositionNumber": 1,
          "atomPositionNumberInMol": -1,
          "apClass": {
            "rule": "bridge",
            "subClass": 0,
            "bndTyp": "SINGLE"
          },
          "dirVec": {
            "x": 0.4112,
            "y": -1.2101,
            "z": -0.19930000000000003
          }
        },
        {
          "id": 826289,
          "atomPositionNumber": 0,
          "atomPositionNumberInMol": -1,
          "apClass": {
            "rule": "bridge",
            "subClass": 0,
            "bndTyp": "SINGLE"
          },
          "dirVec": {
            "x": 0.41179999999999994,
            "y": 1.21,
            "z": -0.19930000000000003
          }
        }
      ],
      "lstSymAPs": [
        {
          "symIds": [
            0,
            1
          ]
        }
      ],
      "mol": {
        "atoms": [
          {
            "elSymbol": "C",
            "p3d": {
              "x": -1.0414,
              "y": 0.7696,
              "z": 0.0732
            }
          },
          {
            "elSymbol": "C",
            "p3d": {
              "x": -1.0417,
              "y": -0.7693,
              "z": 0.0732
            }
          },
          {
            "elSymbol": "H",
            "p3d": {
              "x": -1.6983,
              "y": 1.1431,
              "z": -0.7123
            }
          },
          {
            "elSymbol": "H",
            "p3d": {
              "x": -1.369,
              "y": 1.143,
              "z": 1.0434
            }
          },
          {
            "elSymbol": "H",
            "p3d": {
              "x": -1.3695,
              "y": -1.1425,
              "z": 1.0434
            }
          },
          {
            "elSymbol": "H",
            "p3d": {
              "x": -1.6988,
              "y": -1.1424,
              "z": -0.7123
            }
          }
        ],
        "bonds": [
          {
            "atomIds": [
              0,
              1
            ],
            "bo": "SINGLE"
          },
          {
            "atomIds": [
              0,
              2
            ],
            "bo": "SINGLE"
          },
          {
            "atomIds": [
              0,
              3
            ],
            "bo": "SINGLE"
          },
          {
            "atomIds": [
              1,
              4
            ],
            "bo": "SINGLE"
          },
          {
            "atomIds": [
              1,
              5
            ],
            "bo": "SINGLE"
          }
        ]
      },
      "vertexId": 495077,
      "buildingBlockId": 65,
      "buildingBlockType": "FRAGMENT",
      "isRCV": false,
      "properties": {
        "ATTACHMENT_POINTS": "1#bridge:0:SINGLE:0.4118%1.2100%-0.1993 2#bridge:0:SINGLE:0.4112%-1.2101%-0.1993 ",
        "OLDVERTEXID": 37259
      },
      "uniquefyingPropertyKeys": [],
      "allowedMutationTypes": [
        "DELETE",
        "EXTEND",
        "CHANGEBRANCH",
        "CHANGELINK",
        "ADDLINK",
        "DELETELINK",
        "DELETECHAIN"
      ],
      "vertexType": "MolecularFragment"
    },
    {
      "lstAPs": [
        {
          "id": 826290,
          "atomPositionNumber": 0,
          "atomPositionNumberInMol": -1,
          "apClass": {
            "rule": "ATminus",
            "subClass": 0,
            "bndTyp": "ANY"
          },
          "dirVec": {
            "x": 0.0109,
            "y": -0.0071,
            "z": 0.0026
          }
        }
      ],
      "lstSymAPs": [],
      "mol": {
        "atoms": [
          {
            "elSymbol": "ATM",
            "p3d": {
              "x": -0.0096,
              "y": 0.0045,
              "z": -0.0011
            }
          }
        ],
        "bonds": []
      },
      "vertexId": 495078,
      "buildingBlockId": 79,
      "buildingBlockType": "FRAGMENT",
      "isRCV": true,
      "properties": {
        "ATTACHMENT_POINTS": "1#ATminus:0:ANY:0.0109%-0.0071%0.0026 ",
        "OLDVERTEXID": 494832
      },
      "uniquefyingPropertyKeys": [],
      "allowedMutationTypes": [
        "DELETE",
        "EXTEND",
        "CHANGEBRANCH",
        "CHANGELINK",
        "ADDLINK",
        "DELETELINK",
        "DELETECHAIN"
      ],
      "vertexType": "MolecularFragment"
    },
    {
      "lstAPs": [
        {
          "id": 826291,
          "atomPositionNumber": 0,
          "atomPositionNumberInMol": -1,
          "apClass": {
            "rule": "ATminus",
            "subClass": 0,
            "bndTyp": "ANY"
          },
          "dirVec": {
            "x": 0.0109,
            "y": -0.0071,
            "z": 0.0026
          }
        }
      ],
      "lstSymAPs": [],
      "mol": {
        "atoms": [
          {
            "elSymbol": "ATM",
            "p3d": {
              "x": -0.0096,
              "y": 0.0045,
              "z": -0.0011
            }
          }
        ],
        "bonds": []
      },
      "vertexId": 495079,
      "buildingBlockId": 79,
      "buildingBlockType": "FRAGMENT",
      "isRCV": true,
      "properties": {
        "ATTACHMENT_POINTS": "1#ATminus:0:ANY:0.0109%-0.0071%0.0026 ",
        "OLDVERTEXID": 494834
      },
      "uniquefyingPropertyKeys": [],
      "allowedMutationTypes": [
        "DELETE",
        "EXTEND",
        "CHANGEBRANCH",
        "CHANGELINK",
        "ADDLINK",
        "DELETELINK",
        "DELETECHAIN"
      ],
      "vertexType": "MolecularFragment"
    }
  ],
  "gEdges": [
    {
      "srcAPID": 826274,
      "trgAPID": 826278,
      "bondType": "SINGLE"
    },
    {
      "srcAPID": 826276,
      "trgAPID": 826279,
      "bondType": "SINGLE"
    },
    {
      "srcAPID": 826275,
      "trgAPID": 826280,
      "bondType": "SINGLE"
    },
    {
      "srcAPID": 826273,
      "trgAPID": 826281,
      "bondType": "SINGLE"
    },
    {
      "srcAPID": 826272,
      "trgAPID": 826283,
      "bondType": "SINGLE"
    },
    {
      "srcAPID": 826277,
      "trgAPID": 826285,
      "bondType": "SINGLE"
    },
    {
      "srcAPID": 826282,
      "trgAPID": 826286,
      "bondType": "SINGLE"
    },
    {
      "srcAPID": 826284,
      "trgAPID": 826288,
      "bondType": "SINGLE"
    },
    {
      "srcAPID": 826287,
      "trgAPID": 826290,
      "bondType": "SINGLE"
    },
    {
      "srcAPID": 826289,
      "trgAPID": 826291,
      "bondType": "SINGLE"
    }
  ],
  "gRings": [
    {
      "vertices": [
        495071,
        495070,
        495069,
        495074,
        495077,
        495079
      ],
      "bndTyp": "SINGLE"
    },
    {
      "vertices": [
        495072,
        495070,
        495069,
        495073,
        495076,
        495078
      ],
      "bndTyp": "SINGLE"
    }
  ],
  "symVertices": [
    {
      "symIds": [
        495071,
        495072
      ]
    },
    {
      "symIds": [
        495073,
        495074
      ]
    },
    {
      "symIds": [
        495076,
        495077
      ]
    },
    {
      "symIds": [
        495078,
        495079
      ]
    }
  ]
}

> <SMILES>
[Pt]12(C#O)[P]3(N(C([H])([H])C([H])([H])N3C(C([H])([H])O1)([H])[H])C(C([H])([H])O2)([H])[H])C([H])([H])[H]

$$$$
