M20000941
  CDK     05042206373D

 28 30  0  0  0  0  0  0  0  0999 V2000
   -0.0111    0.0122    1.8954 Pt  0  0  0  0  0  0  0  0  0  0  0  0
   -0.0220    0.0248    3.8522 C   0  0  0  0  0  0  0  0  0  0  0  0
   -0.0284    0.0322    4.9922 O   0  0  0  0  0  0  0  0  0  0  0  0
    0.6430    0.9142   -0.9318 N   0  0  2  0  0  0  0  0  0  0  0  0
    0.0006   -0.0008   -0.1183 C   0  0  0  0  0  0  0  0  0  0  0  0
   -0.6324   -0.9264   -0.9273 N   0  0  2  0  0  0  0  0  0  0  0  0
   -0.3160   -0.7143   -2.3852 C   0  0  0  0  0  0  0  0  0  0  0  0
    0.3440    0.6832   -2.3904 C   0  0  0  0  0  0  0  0  0  0  0  0
   -1.2412   -0.7423   -2.9959 H   0  0  0  0  0  0  0  0  0  0  0  0
    1.2764    0.7033   -2.9903 H   0  0  0  0  0  0  0  0  0  0  0  0
    0.3773   -1.5092   -2.7383 H   0  0  0  0  0  0  0  0  0  0  0  0
   -0.3450    1.4733   -2.7621 H   0  0  0  0  0  0  0  0  0  0  0  0
   -3.0263   -0.2338    0.9222 S   0  0  0  0  0  0  0  0  0  0  0  0
   -2.0186   -0.2235    2.1892 O   0  0  0  0  0  0  0  0  0  0  0  0
   -2.5272    0.8183    0.0418 O   0  0  0  0  0  0  0  0  0  0  0  0
   -4.3913   -0.2461    1.3638 O   0  0  0  0  0  0  0  0  0  0  0  0
   -2.5936   -1.7708    0.2369 C   0  0  0  0  0  0  0  0  0  0  0  0
   -1.5394   -1.9709   -0.5516 C   0  0  0  0  0  0  0  0  0  0  0  0
   -3.2498   -2.6066    0.5087 H   0  0  0  0  0  0  0  0  0  0  0  0
   -1.3011   -2.9380   -1.0217 H   0  0  0  0  0  0  0  0  0  0  0  0
    3.0154    0.2462    0.9540 S   0  0  0  0  0  0  0  0  0  0  0  0
    1.9930    0.2517    2.2093 O   0  0  0  0  0  0  0  0  0  0  0  0
    2.5269   -0.8173    0.0815 O   0  0  0  0  0  0  0  0  0  0  0  0
    4.3752    0.2646    1.4114 O   0  0  0  0  0  0  0  0  0  0  0  0
    2.5904    1.7741    0.2443 C   0  0  0  0  0  0  0  0  0  0  0  0
    1.5454    1.9639   -0.5590 C   0  0  0  0  0  0  0  0  0  0  0  0
    3.2433    2.6136    0.5130 H   0  0  0  0  0  0  0  0  0  0  0  0
    1.3123    2.9247   -1.0440 H   0  0  0  0  0  0  0  0  0  0  0  0
  2  3  3  0  0  0  0
  1  2  1  0  0  0  0
  4  5  1  0  0  0  0
  6  5  1  0  0  0  0
  7  6  1  0  0  0  0
  7  8  1  0  0  0  0
  8  4  1  0  0  0  0
  9  7  1  0  0  0  0
 10  8  1  0  0  0  0
  1  5  1  0  0  0  0
  7 11  1  0  0  0  0
  8 12  1  0  0  0  0
 13 14  1  0  0  0  0
 15 13  2  0  0  0  0
 16 13  2  0  0  0  0
  1 14  1  0  0  0  0
 17 18  2  0  0  0  0
 17 19  1  0  0  0  0
 13 17  1  0  0  0  0
 18 20  1  0  0  0  0
 21 22  1  0  0  0  0
 23 21  2  0  0  0  0
 24 21  2  0  0  0  0
  1 22  1  0  0  0  0
 25 26  2  0  0  0  0
 25 27  1  0  0  0  0
 21 25  1  0  0  0  0
 26 28  1  0  0  0  0
  4 26  1  0  0  0  0
  6 18  1  0  0  0  0
M  END
> <PM6_ENERGY>
-684.069

> <UID>
JIWIBGXZINMONZ-GPTKITIZNA-L

> <FITNESS>
1.14004

> <GCODE>
3795

> <GraphENC>
3795 150956_1_0,150957_60_1,150958_79_1,150959_79_1,150960_77_1,150961_1_2,150962_77_1,150963_1_2,150964_72_1,150965_72_1,150966_80_1,150967_1_2,150968_80_1,150969_1_2, 150956_2_150957_1_SINGLE_scaff:0_MImidazolidinylidene:1,150957_2_150958_0_SINGLE_LImidazolidinylideneSubNL:0_ATplus:0,150957_0_150959_0_SINGLE_LImidazolidinylideneSubNL:0_ATplus:0,150956_0_150960_0_SINGLE_Xlig:0_Xlig:1,150957_3_150961_0_SINGLE_LImidazolidinylideneSubCL:0_hyd:1,150956_1_150962_0_SINGLE_Xlig:0_Xlig:1,150957_4_150963_0_SINGLE_LImidazolidinylideneSubCL:0_hyd:1,150960_1_150964_0_SINGLE_bridge:1_bridge:0,150962_1_150965_0_SINGLE_bridge:1_bridge:0,150965_1_150966_0_SINGLE_bridge:0_ATminus:0,150965_2_150967_0_SINGLE_SubBridge:0_hyd:1,150964_1_150968_0_SINGLE_bridge:0_ATminus:0,150964_2_150969_0_SINGLE_SubBridge:0_hyd:1, DENOPTIMRing [vertices=[150959_79_1, 150957_60_1, 150956_1_0, 150962_77_1, 150965_72_1, 150966_80_1]] DENOPTIMRing [vertices=[150958_79_1, 150957_60_1, 150956_1_0, 150960_77_1, 150964_72_1, 150968_80_1]] SymmetricSet [symIds=[150958, 150959]] SymmetricSet [symIds=[150960, 150962]] SymmetricSet [symIds=[150961, 150963]] SymmetricSet [symIds=[150964, 150965]] SymmetricSet [symIds=[150966, 150968]] SymmetricSet [symIds=[150967, 150969]] 

> <GraphJson>
{
  "graphId": 3795,
  "gVertices": [
    {
      "lstAPs": [
        {
          "id": 249346,
          "atomPositionNumber": 0,
          "atomPositionNumberInMol": -1,
          "apClass": {
            "rule": "Xlig",
            "subClass": 0,
            "bndTyp": "SINGLE"
          },
          "dirVec": {
            "x": -2.3339,
            "y": -0.0087,
            "z": 0.8172
          }
        },
        {
          "id": 249347,
          "atomPositionNumber": 0,
          "atomPositionNumberInMol": -1,
          "apClass": {
            "rule": "Xlig",
            "subClass": 0,
            "bndTyp": "SINGLE"
          },
          "dirVec": {
            "x": 2.336,
            "y": -5.0E-4,
            "z": 0.829
          }
        },
        {
          "id": 249348,
          "atomPositionNumber": 0,
          "atomPositionNumberInMol": -1,
          "apClass": {
            "rule": "scaff",
            "subClass": 0,
            "bndTyp": "SINGLE"
          },
          "dirVec": {
            "x": -0.0095,
            "y": 0.0046,
            "z": -1.7113
          }
        }
      ],
      "lstSymAPs": [
        {
          "symIds": [
            0,
            1
          ]
        }
      ],
      "mol": {
        "atoms": [
          {
            "elSymbol": "Pt",
            "p3d": {
              "x": -0.0098,
              "y": 0.0049,
              "z": 0.6289
            }
          },
          {
            "elSymbol": "C",
            "p3d": {
              "x": -6.0E-4,
              "y": 0.0016,
              "z": 2.5609
            }
          },
          {
            "elSymbol": "O",
            "p3d": {
              "x": 0.0025,
              "y": -0.0041,
              "z": 3.6974
            }
          },
          {
            "elSymbol": "Du",
            "p3d": {
              "x": -0.007,
              "y": 1.0013,
              "z": 0.6372
            }
          },
          {
            "elSymbol": "Du",
            "p3d": {
              "x": -0.0014,
              "y": 0.9902,
              "z": 2.5698
            }
          }
        ],
        "bonds": [
          {
            "atomIds": [
              1,
              2
            ],
            "bo": "TRIPLE"
          },
          {
            "atomIds": [
              0,
              1
            ],
            "bo": "SINGLE"
          },
          {
            "atomIds": [
              3,
              0
            ],
            "bo": "SINGLE"
          },
          {
            "atomIds": [
              4,
              1
            ],
            "bo": "SINGLE"
          }
        ]
      },
      "vertexId": 150956,
      "buildingBlockId": 0,
      "buildingBlockType": "SCAFFOLD",
      "isRCV": false,
      "properties": {
        "ATTACHMENT_POINTS": "1#Xlig:0:SINGLE:-2.3339%-0.0087%0.8172,Xlig:0:SINGLE:2.3360%-0.0005%0.8290,scaff:0:SINGLE:-0.0095%0.0046%-1.7113 ",
        "OLDVERTEXID": 205
      },
      "uniquefyingPropertyKeys": [],
      "allowedMutationTypes": [
        "DELETE",
        "EXTEND",
        "CHANGEBRANCH",
        "CHANGELINK",
        "ADDLINK",
        "DELETELINK",
        "DELETECHAIN"
      ],
      "vertexType": "MolecularFragment"
    },
    {
      "lstAPs": [
        {
          "id": 249349,
          "atomPositionNumber": 0,
          "atomPositionNumberInMol": -1,
          "apClass": {
            "rule": "LImidazolidinylideneSubNL",
            "subClass": 0,
            "bndTyp": "SINGLE"
          },
          "dirVec": {
            "x": 0.9114374237224112,
            "y": -2.269162114034064,
            "z": -1.73512216162091
          }
        },
        {
          "id": 249350,
          "atomPositionNumber": 1,
          "atomPositionNumberInMol": -1,
          "apClass": {
            "rule": "MImidazolidinylidene",
            "subClass": 1,
            "bndTyp": "SINGLE"
          },
          "dirVec": {
            "x": -0.009781397536660474,
            "y": 0.004881397536660548,
            "z": 0.4837883843094877
          }
        },
        {
          "id": 249351,
          "atomPositionNumber": 2,
          "atomPositionNumberInMol": -1,
          "apClass": {
            "rule": "LImidazolidinylideneSubNL",
            "subClass": 0,
            "bndTyp": "SINGLE"
          },
          "dirVec": {
            "x": -0.9076453420528022,
            "y": 2.2675608164958976,
            "z": -1.810031993173502
          }
        },
        {
          "id": 249352,
          "atomPositionNumber": 3,
          "atomPositionNumberInMol": -1,
          "apClass": {
            "rule": "LImidazolidinylideneSubCL",
            "subClass": 0,
            "bndTyp": "SINGLE"
          },
          "dirVec": {
            "x": -1.9597652498362117,
            "y": 0.3654872507731368,
            "z": -4.371946970338932
          }
        },
        {
          "id": 249353,
          "atomPositionNumber": 4,
          "atomPositionNumberInMol": -1,
          "apClass": {
            "rule": "LImidazolidinylideneSubCL",
            "subClass": 0,
            "bndTyp": "SINGLE"
          },
          "dirVec": {
            "x": 1.7398715117890693,
            "y": -0.589379512252807,
            "z": -4.485128403883309
          }
        }
      ],
      "lstSymAPs": [
        {
          "symIds": [
            0,
            2
          ]
        },
        {
          "symIds": [
            3,
            4
          ]
        }
      ],
      "mol": {
        "atoms": [
          {
            "elSymbol": "N",
            "p3d": {
              "x": 0.4620029374357079,
              "y": -1.0012870581278954,
              "z": -2.317095069192333
            }
          },
          {
            "elSymbol": "C",
            "p3d": {
              "x": -0.009518602463339527,
              "y": 0.004618602463339452,
              "z": -1.5661883843094881
            }
          },
          {
            "elSymbol": "N",
            "p3d": {
              "x": -0.495416972415669,
              "y": 0.9580453104531106,
              "z": -2.3396500165637697
            }
          },
          {
            "elSymbol": "C",
            "p3d": {
              "x": -0.5068910066519264,
              "y": 0.5648308504550289,
              "z": -3.756401291483529
            }
          },
          {
            "elSymbol": "C",
            "p3d": {
              "x": 0.3605416829394851,
              "y": -0.6971172079421345,
              "z": -3.770728780301849
            }
          },
          {
            "elSymbol": "H",
            "p3d": {
              "x": -0.1309303334286437,
              "y": 1.330189770633253,
              "z": -4.435352464612437
            }
          },
          {
            "elSymbol": "H",
            "p3d": {
              "x": -0.08828628907134929,
              "y": -1.5032723399177854,
              "z": -4.3711397435011925
            }
          }
        ],
        "bonds": [
          {
            "atomIds": [
              0,
              1
            ],
            "bo": "SINGLE"
          },
          {
            "atomIds": [
              2,
              1
            ],
            "bo": "SINGLE"
          },
          {
            "atomIds": [
              3,
              2
            ],
            "bo": "SINGLE"
          },
          {
            "atomIds": [
              3,
              4
            ],
            "bo": "SINGLE"
          },
          {
            "atomIds": [
              4,
              0
            ],
            "bo": "SINGLE"
          },
          {
            "atomIds": [
              5,
              3
            ],
            "bo": "SINGLE"
          },
          {
            "atomIds": [
              6,
              4
            ],
            "bo": "SINGLE"
          }
        ]
      },
      "vertexId": 150957,
      "buildingBlockId": 59,
      "buildingBlockType": "FRAGMENT",
      "isRCV": false,
      "properties": {
        "ATTACHMENT_POINTS": "1#LImidazolidinylideneSubNL:0:SINGLE:0.9114%-2.2692%-1.7351 2#MImidazolidinylidene:1:SINGLE:-0.0098%0.0049%0.4838 3#LImidazolidinylideneSubNL:0:SINGLE:-0.9076%2.2676%-1.8100 4#LImidazolidinylideneSubCL:0:SINGLE:-1.9598%0.3655%-4.3719 5#LImidazolidinylideneSubCL:0:SINGLE:1.7399%-0.5894%-4.4851 ",
        "OLDVERTEXID": 206
      },
      "uniquefyingPropertyKeys": [],
      "allowedMutationTypes": [
        "DELETE",
        "EXTEND",
        "CHANGEBRANCH",
        "CHANGELINK",
        "ADDLINK",
        "DELETELINK",
        "DELETECHAIN"
      ],
      "vertexType": "MolecularFragment"
    },
    {
      "lstAPs": [
        {
          "id": 249354,
          "atomPositionNumber": 0,
          "atomPositionNumberInMol": -1,
          "apClass": {
            "rule": "ATplus",
            "subClass": 0,
            "bndTyp": "ANY"
          },
          "dirVec": {
            "x": -0.9076453420528022,
            "y": 2.2675608164958976,
            "z": -1.810031993173502
          }
        }
      ],
      "lstSymAPs": [],
      "mol": {
        "atoms": [
          {
            "elSymbol": "ATP",
            "p3d": {
              "x": -0.9135261874114748,
              "y": 2.2862423502113005,
              "z": -1.8024764683136634
            }
          }
        ],
        "bonds": []
      },
      "vertexId": 150958,
      "buildingBlockId": 78,
      "buildingBlockType": "FRAGMENT",
      "isRCV": true,
      "properties": {
        "ATTACHMENT_POINTS": "1#ATplus:0:ANY:-0.9076%2.2676%-1.8100 ",
        "OLDVERTEXID": 207
      },
      "uniquefyingPropertyKeys": [],
      "allowedMutationTypes": [
        "DELETE",
        "EXTEND",
        "CHANGEBRANCH",
        "CHANGELINK",
        "ADDLINK",
        "DELETELINK",
        "DELETECHAIN"
      ],
      "vertexType": "MolecularFragment"
    },
    {
      "lstAPs": [
        {
          "id": 249355,
          "atomPositionNumber": 0,
          "atomPositionNumberInMol": -1,
          "apClass": {
            "rule": "ATplus",
            "subClass": 0,
            "bndTyp": "ANY"
          },
          "dirVec": {
            "x": 0.9114374237224112,
            "y": -2.269162114034064,
            "z": -1.73512216162091
          }
        }
      ],
      "lstSymAPs": [],
      "mol": {
        "atoms": [
          {
            "elSymbol": "ATP",
            "p3d": {
              "x": 0.9178744709033246,
              "y": -2.28732131588304,
              "z": -1.7267868264867459
            }
          }
        ],
        "bonds": []
      },
      "vertexId": 150959,
      "buildingBlockId": 78,
      "buildingBlockType": "FRAGMENT",
      "isRCV": true,
      "properties": {
        "ATTACHMENT_POINTS": "1#ATplus:0:ANY:0.9114%-2.2692%-1.7351 ",
        "OLDVERTEXID": 208
      },
      "uniquefyingPropertyKeys": [],
      "allowedMutationTypes": [
        "DELETE",
        "EXTEND",
        "CHANGEBRANCH",
        "CHANGELINK",
        "ADDLINK",
        "DELETELINK",
        "DELETECHAIN"
      ],
      "vertexType": "MolecularFragment"
    },
    {
      "lstAPs": [
        {
          "id": 249356,
          "atomPositionNumber": 1,
          "atomPositionNumberInMol": -1,
          "apClass": {
            "rule": "Xlig",
            "subClass": 1,
            "bndTyp": "SINGLE"
          },
          "dirVec": {
            "x": 5.983,
            "y": 5.659,
            "z": 10.7602
          }
        },
        {
          "id": 249357,
          "atomPositionNumber": 0,
          "atomPositionNumberInMol": -1,
          "apClass": {
            "rule": "bridge",
            "subClass": 1,
            "bndTyp": "SINGLE"
          },
          "dirVec": {
            "x": 3.1219,
            "y": 7.0322,
            "z": 12.57
          }
        }
      ],
      "lstSymAPs": [],
      "mol": {
        "atoms": [
          {
            "elSymbol": "S",
            "p3d": {
              "x": 3.289,
              "y": 7.1626,
              "z": 10.7898
            }
          },
          {
            "elSymbol": "O",
            "p3d": {
              "x": 4.7494,
              "y": 7.4238,
              "z": 10.5812
            }
          },
          {
            "elSymbol": "O",
            "p3d": {
              "x": 2.8666,
              "y": 5.9079,
              "z": 10.2063
            }
          },
          {
            "elSymbol": "O",
            "p3d": {
              "x": 2.5225,
              "y": 8.319,
              "z": 10.3914
            }
          }
        ],
        "bonds": [
          {
            "atomIds": [
              0,
              1
            ],
            "bo": "SINGLE"
          },
          {
            "atomIds": [
              2,
              0
            ],
            "bo": "DOUBLE"
          },
          {
            "atomIds": [
              3,
              0
            ],
            "bo": "DOUBLE"
          }
        ]
      },
      "vertexId": 150960,
      "buildingBlockId": 76,
      "buildingBlockType": "FRAGMENT",
      "isRCV": false,
      "properties": {
        "ATTACHMENT_POINTS": "1#bridge:1:SINGLE:3.1219%7.0322%12.5700 2#Xlig:1:SINGLE:5.9830%5.6590%10.7602 ",
        "OLDVERTEXID": 1025
      },
      "uniquefyingPropertyKeys": [],
      "allowedMutationTypes": [
        "DELETE",
        "EXTEND",
        "CHANGEBRANCH",
        "CHANGELINK",
        "ADDLINK",
        "DELETELINK",
        "DELETECHAIN"
      ],
      "vertexType": "MolecularFragment"
    },
    {
      "lstAPs": [
        {
          "id": 249358,
          "atomPositionNumber": 0,
          "atomPositionNumberInMol": -1,
          "apClass": {
            "rule": "hyd",
            "subClass": 1,
            "bndTyp": "SINGLE"
          },
          "dirVec": {
            "x": 0.4589,
            "y": -1.751,
            "z": 0.3869
          }
        }
      ],
      "lstSymAPs": [],
      "mol": {
        "atoms": [
          {
            "elSymbol": "H",
            "p3d": {
              "x": 0.1925,
              "y": -2.5024,
              "z": 1.1483
            }
          }
        ],
        "bonds": []
      },
      "vertexId": 150961,
      "buildingBlockId": 0,
      "buildingBlockType": "CAP",
      "isRCV": false,
      "properties": {
        "ATTACHMENT_POINTS": "1#hyd:1:SINGLE:0.4589%-1.7510%0.3869 ",
        "OLDVERTEXID": 1030
      },
      "uniquefyingPropertyKeys": [],
      "allowedMutationTypes": [
        "DELETE",
        "EXTEND",
        "CHANGEBRANCH",
        "CHANGELINK",
        "ADDLINK",
        "DELETELINK",
        "DELETECHAIN"
      ],
      "vertexType": "MolecularFragment"
    },
    {
      "lstAPs": [
        {
          "id": 249359,
          "atomPositionNumber": 1,
          "atomPositionNumberInMol": -1,
          "apClass": {
            "rule": "Xlig",
            "subClass": 1,
            "bndTyp": "SINGLE"
          },
          "dirVec": {
            "x": 5.983,
            "y": 5.659,
            "z": 10.7602
          }
        },
        {
          "id": 249360,
          "atomPositionNumber": 0,
          "atomPositionNumberInMol": -1,
          "apClass": {
            "rule": "bridge",
            "subClass": 1,
            "bndTyp": "SINGLE"
          },
          "dirVec": {
            "x": 3.1219,
            "y": 7.0322,
            "z": 12.57
          }
        }
      ],
      "lstSymAPs": [],
      "mol": {
        "atoms": [
          {
            "elSymbol": "S",
            "p3d": {
              "x": 3.289,
              "y": 7.1626,
              "z": 10.7898
            }
          },
          {
            "elSymbol": "O",
            "p3d": {
              "x": 4.7494,
              "y": 7.4238,
              "z": 10.5812
            }
          },
          {
            "elSymbol": "O",
            "p3d": {
              "x": 2.8666,
              "y": 5.9079,
              "z": 10.2063
            }
          },
          {
            "elSymbol": "O",
            "p3d": {
              "x": 2.5225,
              "y": 8.319,
              "z": 10.3914
            }
          }
        ],
        "bonds": [
          {
            "atomIds": [
              0,
              1
            ],
            "bo": "SINGLE"
          },
          {
            "atomIds": [
              2,
              0
            ],
            "bo": "DOUBLE"
          },
          {
            "atomIds": [
              3,
              0
            ],
            "bo": "DOUBLE"
          }
        ]
      },
      "vertexId": 150962,
      "buildingBlockId": 76,
      "buildingBlockType": "FRAGMENT",
      "isRCV": false,
      "properties": {
        "ATTACHMENT_POINTS": "1#bridge:1:SINGLE:3.1219%7.0322%12.5700 2#Xlig:1:SINGLE:5.9830%5.6590%10.7602 ",
        "OLDVERTEXID": 1127
      },
      "uniquefyingPropertyKeys": [],
      "allowedMutationTypes": [
        "DELETE",
        "EXTEND",
        "CHANGEBRANCH",
        "CHANGELINK",
        "ADDLINK",
        "DELETELINK",
        "DELETECHAIN"
      ],
      "vertexType": "MolecularFragment"
    },
    {
      "lstAPs": [
        {
          "id": 249361,
          "atomPositionNumber": 0,
          "atomPositionNumberInMol": -1,
          "apClass": {
            "rule": "hyd",
            "subClass": 1,
            "bndTyp": "SINGLE"
          },
          "dirVec": {
            "x": 0.4589,
            "y": -1.751,
            "z": 0.3869
          }
        }
      ],
      "lstSymAPs": [],
      "mol": {
        "atoms": [
          {
            "elSymbol": "H",
            "p3d": {
              "x": 0.1925,
              "y": -2.5024,
              "z": 1.1483
            }
          }
        ],
        "bonds": []
      },
      "vertexId": 150963,
      "buildingBlockId": 0,
      "buildingBlockType": "CAP",
      "isRCV": false,
      "properties": {
        "ATTACHMENT_POINTS": "1#hyd:1:SINGLE:0.4589%-1.7510%0.3869 ",
        "OLDVERTEXID": 1128
      },
      "uniquefyingPropertyKeys": [],
      "allowedMutationTypes": [
        "DELETE",
        "EXTEND",
        "CHANGEBRANCH",
        "CHANGELINK",
        "ADDLINK",
        "DELETELINK",
        "DELETECHAIN"
      ],
      "vertexType": "MolecularFragment"
    },
    {
      "lstAPs": [
        {
          "id": 249362,
          "atomPositionNumber": 0,
          "atomPositionNumberInMol": -1,
          "apClass": {
            "rule": "bridge",
            "subClass": 0,
            "bndTyp": "SINGLE"
          },
          "dirVec": {
            "x": 1.9789000000000003,
            "y": 0.17000000000000004,
            "z": 0.0
          }
        },
        {
          "id": 249363,
          "atomPositionNumber": 1,
          "atomPositionNumberInMol": -1,
          "apClass": {
            "rule": "bridge",
            "subClass": 0,
            "bndTyp": "SINGLE"
          },
          "dirVec": {
            "x": -0.3006,
            "y": -1.4852,
            "z": 0.0
          }
        },
        {
          "id": 249364,
          "atomPositionNumber": 1,
          "atomPositionNumberInMol": -1,
          "apClass": {
            "rule": "SubBridge",
            "subClass": 0,
            "bndTyp": "SINGLE"
          },
          "dirVec": {
            "x": -1.8343,
            "y": 0.6268,
            "z": 0.0
          }
        }
      ],
      "lstSymAPs": [],
      "mol": {
        "atoms": [
          {
            "elSymbol": "C",
            "p3d": {
              "x": 0.6023,
              "y": 0.7833,
              "z": 0.0
            }
          },
          {
            "elSymbol": "C",
            "p3d": {
              "x": -0.4578,
              "y": 0.0135,
              "z": 0.0
            }
          },
          {
            "elSymbol": "H",
            "p3d": {
              "x": 0.4897,
              "y": 1.8574,
              "z": 0.0
            }
          }
        ],
        "bonds": [
          {
            "atomIds": [
              0,
              1
            ],
            "bo": "DOUBLE"
          },
          {
            "atomIds": [
              0,
              2
            ],
            "bo": "SINGLE"
          }
        ]
      },
      "vertexId": 150964,
      "buildingBlockId": 71,
      "buildingBlockType": "FRAGMENT",
      "isRCV": false,
      "properties": {
        "ATTACHMENT_POINTS": "1#bridge:0:SINGLE:1.9789%0.1700%0.0000 2#bridge:0:SINGLE:-0.3006%-1.4852%0.0000,SubBridge:0:SINGLE:-1.8343%0.6268%0.0000 ",
        "OLDVERTEXID": 27200
      },
      "uniquefyingPropertyKeys": [],
      "allowedMutationTypes": [
        "DELETE",
        "EXTEND",
        "CHANGEBRANCH",
        "CHANGELINK",
        "ADDLINK",
        "DELETELINK",
        "DELETECHAIN"
      ],
      "vertexType": "MolecularFragment"
    },
    {
      "lstAPs": [
        {
          "id": 249365,
          "atomPositionNumber": 0,
          "atomPositionNumberInMol": -1,
          "apClass": {
            "rule": "bridge",
            "subClass": 0,
            "bndTyp": "SINGLE"
          },
          "dirVec": {
            "x": 1.9789000000000003,
            "y": 0.17000000000000004,
            "z": 0.0
          }
        },
        {
          "id": 249366,
          "atomPositionNumber": 1,
          "atomPositionNumberInMol": -1,
          "apClass": {
            "rule": "bridge",
            "subClass": 0,
            "bndTyp": "SINGLE"
          },
          "dirVec": {
            "x": -0.3006,
            "y": -1.4852,
            "z": 0.0
          }
        },
        {
          "id": 249367,
          "atomPositionNumber": 1,
          "atomPositionNumberInMol": -1,
          "apClass": {
            "rule": "SubBridge",
            "subClass": 0,
            "bndTyp": "SINGLE"
          },
          "dirVec": {
            "x": -1.8343,
            "y": 0.6268,
            "z": 0.0
          }
        }
      ],
      "lstSymAPs": [],
      "mol": {
        "atoms": [
          {
            "elSymbol": "C",
            "p3d": {
              "x": 0.6023,
              "y": 0.7833,
              "z": 0.0
            }
          },
          {
            "elSymbol": "C",
            "p3d": {
              "x": -0.4578,
              "y": 0.0135,
              "z": 0.0
            }
          },
          {
            "elSymbol": "H",
            "p3d": {
              "x": 0.4897,
              "y": 1.8574,
              "z": 0.0
            }
          }
        ],
        "bonds": [
          {
            "atomIds": [
              0,
              1
            ],
            "bo": "DOUBLE"
          },
          {
            "atomIds": [
              0,
              2
            ],
            "bo": "SINGLE"
          }
        ]
      },
      "vertexId": 150965,
      "buildingBlockId": 71,
      "buildingBlockType": "FRAGMENT",
      "isRCV": false,
      "properties": {
        "ATTACHMENT_POINTS": "1#bridge:0:SINGLE:1.9789%0.1700%0.0000 2#bridge:0:SINGLE:-0.3006%-1.4852%0.0000,SubBridge:0:SINGLE:-1.8343%0.6268%0.0000 ",
        "OLDVERTEXID": 27461
      },
      "uniquefyingPropertyKeys": [],
      "allowedMutationTypes": [
        "DELETE",
        "EXTEND",
        "CHANGEBRANCH",
        "CHANGELINK",
        "ADDLINK",
        "DELETELINK",
        "DELETECHAIN"
      ],
      "vertexType": "MolecularFragment"
    },
    {
      "lstAPs": [
        {
          "id": 249368,
          "atomPositionNumber": 0,
          "atomPositionNumberInMol": -1,
          "apClass": {
            "rule": "ATminus",
            "subClass": 0,
            "bndTyp": "ANY"
          },
          "dirVec": {
            "x": 0.0109,
            "y": -0.0071,
            "z": 0.0026
          }
        }
      ],
      "lstSymAPs": [],
      "mol": {
        "atoms": [
          {
            "elSymbol": "ATM",
            "p3d": {
              "x": -0.0096,
              "y": 0.0045,
              "z": -0.0011
            }
          }
        ],
        "bonds": []
      },
      "vertexId": 150966,
      "buildingBlockId": 79,
      "buildingBlockType": "FRAGMENT",
      "isRCV": true,
      "properties": {
        "ATTACHMENT_POINTS": "1#ATminus:0:ANY:0.0109%-0.0071%0.0026 ",
        "OLDVERTEXID": 150514
      },
      "uniquefyingPropertyKeys": [],
      "allowedMutationTypes": [
        "DELETE",
        "EXTEND",
        "CHANGEBRANCH",
        "CHANGELINK",
        "ADDLINK",
        "DELETELINK",
        "DELETECHAIN"
      ],
      "vertexType": "MolecularFragment"
    },
    {
      "lstAPs": [
        {
          "id": 249369,
          "atomPositionNumber": 0,
          "atomPositionNumberInMol": -1,
          "apClass": {
            "rule": "hyd",
            "subClass": 1,
            "bndTyp": "SINGLE"
          },
          "dirVec": {
            "x": 0.4589,
            "y": -1.751,
            "z": 0.3869
          }
        }
      ],
      "lstSymAPs": [],
      "mol": {
        "atoms": [
          {
            "elSymbol": "H",
            "p3d": {
              "x": 0.1925,
              "y": -2.5024,
              "z": 1.1483
            }
          }
        ],
        "bonds": []
      },
      "vertexId": 150967,
      "buildingBlockId": 0,
      "buildingBlockType": "CAP",
      "isRCV": false,
      "properties": {
        "ATTACHMENT_POINTS": "1#hyd:1:SINGLE:0.4589%-1.7510%0.3869 ",
        "OLDVERTEXID": 150515
      },
      "uniquefyingPropertyKeys": [],
      "allowedMutationTypes": [
        "DELETE",
        "EXTEND",
        "CHANGEBRANCH",
        "CHANGELINK",
        "ADDLINK",
        "DELETELINK",
        "DELETECHAIN"
      ],
      "vertexType": "MolecularFragment"
    },
    {
      "lstAPs": [
        {
          "id": 249370,
          "atomPositionNumber": 0,
          "atomPositionNumberInMol": -1,
          "apClass": {
            "rule": "ATminus",
            "subClass": 0,
            "bndTyp": "ANY"
          },
          "dirVec": {
            "x": 0.0109,
            "y": -0.0071,
            "z": 0.0026
          }
        }
      ],
      "lstSymAPs": [],
      "mol": {
        "atoms": [
          {
            "elSymbol": "ATM",
            "p3d": {
              "x": -0.0096,
              "y": 0.0045,
              "z": -0.0011
            }
          }
        ],
        "bonds": []
      },
      "vertexId": 150968,
      "buildingBlockId": 79,
      "buildingBlockType": "FRAGMENT",
      "isRCV": true,
      "properties": {
        "ATTACHMENT_POINTS": "1#ATminus:0:ANY:0.0109%-0.0071%0.0026 ",
        "OLDVERTEXID": 149358
      },
      "uniquefyingPropertyKeys": [],
      "allowedMutationTypes": [
        "DELETE",
        "EXTEND",
        "CHANGEBRANCH",
        "CHANGELINK",
        "ADDLINK",
        "DELETELINK",
        "DELETECHAIN"
      ],
      "vertexType": "MolecularFragment"
    },
    {
      "lstAPs": [
        {
          "id": 249371,
          "atomPositionNumber": 0,
          "atomPositionNumberInMol": -1,
          "apClass": {
            "rule": "hyd",
            "subClass": 1,
            "bndTyp": "SINGLE"
          },
          "dirVec": {
            "x": 0.4589,
            "y": -1.751,
            "z": 0.3869
          }
        }
      ],
      "lstSymAPs": [],
      "mol": {
        "atoms": [
          {
            "elSymbol": "H",
            "p3d": {
              "x": 0.1925,
              "y": -2.5024,
              "z": 1.1483
            }
          }
        ],
        "bonds": []
      },
      "vertexId": 150969,
      "buildingBlockId": 0,
      "buildingBlockType": "CAP",
      "isRCV": false,
      "properties": {
        "ATTACHMENT_POINTS": "1#hyd:1:SINGLE:0.4589%-1.7510%0.3869 ",
        "OLDVERTEXID": 149369
      },
      "uniquefyingPropertyKeys": [],
      "allowedMutationTypes": [
        "DELETE",
        "EXTEND",
        "CHANGEBRANCH",
        "CHANGELINK",
        "ADDLINK",
        "DELETELINK",
        "DELETECHAIN"
      ],
      "vertexType": "MolecularFragment"
    }
  ],
  "gEdges": [
    {
      "srcAPID": 249348,
      "trgAPID": 249350,
      "bondType": "SINGLE"
    },
    {
      "srcAPID": 249351,
      "trgAPID": 249354,
      "bondType": "SINGLE"
    },
    {
      "srcAPID": 249349,
      "trgAPID": 249355,
      "bondType": "SINGLE"
    },
    {
      "srcAPID": 249346,
      "trgAPID": 249356,
      "bondType": "SINGLE"
    },
    {
      "srcAPID": 249352,
      "trgAPID": 249358,
      "bondType": "SINGLE"
    },
    {
      "srcAPID": 249347,
      "trgAPID": 249359,
      "bondType": "SINGLE"
    },
    {
      "srcAPID": 249353,
      "trgAPID": 249361,
      "bondType": "SINGLE"
    },
    {
      "srcAPID": 249357,
      "trgAPID": 249362,
      "bondType": "SINGLE"
    },
    {
      "srcAPID": 249360,
      "trgAPID": 249365,
      "bondType": "SINGLE"
    },
    {
      "srcAPID": 249366,
      "trgAPID": 249368,
      "bondType": "SINGLE"
    },
    {
      "srcAPID": 249367,
      "trgAPID": 249369,
      "bondType": "SINGLE"
    },
    {
      "srcAPID": 249363,
      "trgAPID": 249370,
      "bondType": "SINGLE"
    },
    {
      "srcAPID": 249364,
      "trgAPID": 249371,
      "bondType": "SINGLE"
    }
  ],
  "gRings": [
    {
      "vertices": [
        150959,
        150957,
        150956,
        150962,
        150965,
        150966
      ],
      "bndTyp": "SINGLE"
    },
    {
      "vertices": [
        150958,
        150957,
        150956,
        150960,
        150964,
        150968
      ],
      "bndTyp": "SINGLE"
    }
  ],
  "symVertices": [
    {
      "symIds": [
        150958,
        150959
      ]
    },
    {
      "symIds": [
        150960,
        150962
      ]
    },
    {
      "symIds": [
        150961,
        150963
      ]
    },
    {
      "symIds": [
        150964,
        150965
      ]
    },
    {
      "symIds": [
        150966,
        150968
      ]
    },
    {
      "symIds": [
        150967,
        150969
      ]
    }
  ]
}

> <SMILES>
[Pt]12(C#O)[C]3N(C(C(N3C(=C([H])S(O1)(=O)=O)[H])([H])[H])([H])[H])C(=C([H])S(O2)(=O)=O)[H]

$$$$
