M20004057
  CDK     05042206503D

 36 38  0  0  0  0  0  0  0  0999 V2000
   -2.0382   -0.0964    0.7582 Pt  0  0  0  0  0  0  0  0  0  0  0  0
   -3.9941   -0.2069    0.8316 C   0  0  0  0  0  0  0  0  0  0  0  0
   -5.1319   -0.2821    0.8633 O   0  0  0  0  0  0  0  0  0  0  0  0
    2.2636    1.1650   -0.4974 C   0  0  0  0  0  0  0  0  0  0  0  0
    3.1451    1.4652    0.1135 H   0  0  0  0  0  0  0  0  0  0  0  0
    2.2955    1.7712   -1.4307 H   0  0  0  0  0  0  0  0  0  0  0  0
    2.3334   -0.3539   -0.8374 C   0  0  0  0  0  0  0  0  0  0  0  0
    2.5207   -0.4904   -1.9256 H   0  0  0  0  0  0  0  0  0  0  0  0
    3.1852   -0.8329   -0.3022 H   0  0  0  0  0  0  0  0  0  0  0  0
    1.0114    1.4435    0.2482 N   0  0  2  0  0  0  0  0  0  0  0  0
    1.0512   -1.0044   -0.4572 N   0  0  1  0  0  0  0  0  0  0  0  0
    0.2240   -0.0298    0.7125 P   0  0  0  0  0  0  0  0  0  0  0  0
    0.8458   -0.4597    2.4273 C   0  0  0  0  0  0  0  0  0  0  0  0
    1.9385   -0.5022    2.4688 H   0  0  0  0  0  0  0  0  0  0  0  0
    0.4488   -1.4385    2.7449 H   0  0  0  0  0  0  0  0  0  0  0  0
    0.5023    0.2822    3.1612 H   0  0  0  0  0  0  0  0  0  0  0  0
   -2.0978   -2.3450    1.3999 S   0  0  0  0  0  0  0  0  0  0  0  0
    0.6496   -2.2748   -1.0985 C   0  0  0  0  0  0  0  0  0  0  0  0
   -0.0095   -3.2886   -0.1495 C   0  0  0  0  0  0  0  0  0  0  0  0
   -1.5291   -3.1822   -0.1124 C   0  0  0  0  0  0  0  0  0  0  0  0
   -0.0358   -2.0499   -1.9530 H   0  0  0  0  0  0  0  0  0  0  0  0
    1.5642   -2.7358   -1.5411 H   0  0  0  0  0  0  0  0  0  0  0  0
    0.2718   -4.3089   -0.4902 H   0  0  0  0  0  0  0  0  0  0  0  0
    0.4253   -3.2260    0.8704 H   0  0  0  0  0  0  0  0  0  0  0  0
   -1.9336   -2.6549   -0.9967 H   0  0  0  0  0  0  0  0  0  0  0  0
   -1.9940   -4.1882   -0.1058 H   0  0  0  0  0  0  0  0  0  0  0  0
   -2.4984    2.1539    0.3154 S   0  0  0  0  0  0  0  0  0  0  0  0
    0.5280    2.8187    0.4545 C   0  0  0  0  0  0  0  0  0  0  0  0
   -0.2704    3.3753   -0.7413 C   0  0  0  0  0  0  0  0  0  0  0  0
   -1.4782    2.5414   -1.1434 C   0  0  0  0  0  0  0  0  0  0  0  0
   -0.0970    2.8592    1.3801 H   0  0  0  0  0  0  0  0  0  0  0  0
    1.4076    3.4780    0.6424 H   0  0  0  0  0  0  0  0  0  0  0  0
   -0.5976    4.4051   -0.4821 H   0  0  0  0  0  0  0  0  0  0  0  0
    0.3990    3.4835   -1.6186 H   0  0  0  0  0  0  0  0  0  0  0  0
   -2.1200    3.1010   -1.8521 H   0  0  0  0  0  0  0  0  0  0  0  0
   -1.1855    1.6083   -1.6569 H   0  0  0  0  0  0  0  0  0  0  0  0
  2  3  3  0  0  0  0
  1  2  1  0  0  0  0
  4  5  1  0  0  0  0
  4 10  1  0  0  0  0
  6  4  1  0  0  0  0
  7  4  1  0  0  0  0
  8  7  1  0  0  0  0
  9  7  1  0  0  0  0
 10 12  1  0  0  0  0
 11  7  1  0  0  0  0
 11 12  1  0  0  0  0
  1 12  1  0  0  0  0
 14 13  1  0  0  0  0
 15 13  1  0  0  0  0
 16 13  1  0  0  0  0
 12 13  1  0  0  0  0
  1 17  1  0  0  0  0
 18 19  1  0  0  0  0
 19 20  1  0  0  0  0
 18 21  1  0  0  0  0
 18 22  1  0  0  0  0
 19 23  1  0  0  0  0
 19 24  1  0  0  0  0
 20 25  1  0  0  0  0
 20 26  1  0  0  0  0
 17 20  1  0  0  0  0
  1 27  1  0  0  0  0
 28 29  1  0  0  0  0
 29 30  1  0  0  0  0
 28 31  1  0  0  0  0
 28 32  1  0  0  0  0
 29 33  1  0  0  0  0
 29 34  1  0  0  0  0
 30 35  1  0  0  0  0
 30 36  1  0  0  0  0
 27 30  1  0  0  0  0
 11 18  1  0  0  0  0
 10 28  1  0  0  0  0
M  END
> <PM6_ENERGY>
-170.460

> <UID>
HPIXVHTXZJLCNR-BOJRWQABNA-L

> <FITNESS>
1.14072

> <GCODE>
10005

> <GraphENC>
10005 508002_1_0,508003_2_1,508004_79_1,508005_79_1,508006_74_1,508007_74_1,508008_2_2,508009_65_1,508010_65_1,508011_80_1,508012_80_1, 508002_2_508003_3_SINGLE_scaff:0_MBisAminoPhosphine:1,508003_1_508004_0_SINGLE_LCycloBisAminoPhosphineSubN:0_ATplus:0,508003_0_508005_0_SINGLE_LCycloBisAminoPhosphineSubN:0_ATplus:0,508002_1_508006_0_SINGLE_Xlig:0_Xlig:1,508002_0_508007_0_SINGLE_Xlig:0_Xlig:1,508003_2_508008_0_SINGLE_LBisAminoPhosphineSubR:0_me:1,508006_1_508009_1_SINGLE_bridge:1_bridge:0,508007_1_508010_1_SINGLE_bridge:1_bridge:0,508009_0_508011_0_SINGLE_bridge:0_ATminus:0,508010_0_508012_0_SINGLE_bridge:0_ATminus:0, DENOPTIMRing [vertices=[508004_79_1, 508003_2_1, 508002_1_0, 508006_74_1, 508009_65_1, 508011_80_1]] DENOPTIMRing [vertices=[508005_79_1, 508003_2_1, 508002_1_0, 508007_74_1, 508010_65_1, 508012_80_1]] SymmetricSet [symIds=[508004, 508005]] SymmetricSet [symIds=[508006, 508007]] SymmetricSet [symIds=[508009, 508010]] SymmetricSet [symIds=[508011, 508012]] 

> <GraphJson>
{
  "graphId": 10005,
  "gVertices": [
    {
      "lstAPs": [
        {
          "id": 847518,
          "atomPositionNumber": 0,
          "atomPositionNumberInMol": -1,
          "apClass": {
            "rule": "Xlig",
            "subClass": 0,
            "bndTyp": "SINGLE"
          },
          "dirVec": {
            "x": -2.3339,
            "y": -0.0087,
            "z": 0.8172
          }
        },
        {
          "id": 847519,
          "atomPositionNumber": 0,
          "atomPositionNumberInMol": -1,
          "apClass": {
            "rule": "Xlig",
            "subClass": 0,
            "bndTyp": "SINGLE"
          },
          "dirVec": {
            "x": 2.336,
            "y": -5.0E-4,
            "z": 0.829
          }
        },
        {
          "id": 847520,
          "atomPositionNumber": 0,
          "atomPositionNumberInMol": -1,
          "apClass": {
            "rule": "scaff",
            "subClass": 0,
            "bndTyp": "SINGLE"
          },
          "dirVec": {
            "x": -0.0095,
            "y": 0.0046,
            "z": -1.7113
          }
        }
      ],
      "lstSymAPs": [
        {
          "symIds": [
            0,
            1
          ]
        }
      ],
      "mol": {
        "atoms": [
          {
            "elSymbol": "Pt",
            "p3d": {
              "x": -0.0098,
              "y": 0.0049,
              "z": 0.6289
            }
          },
          {
            "elSymbol": "C",
            "p3d": {
              "x": -6.0E-4,
              "y": 0.0016,
              "z": 2.5609
            }
          },
          {
            "elSymbol": "O",
            "p3d": {
              "x": 0.0025,
              "y": -0.0041,
              "z": 3.6974
            }
          },
          {
            "elSymbol": "Du",
            "p3d": {
              "x": -0.007,
              "y": 1.0013,
              "z": 0.6372
            }
          },
          {
            "elSymbol": "Du",
            "p3d": {
              "x": -0.0014,
              "y": 0.9902,
              "z": 2.5698
            }
          }
        ],
        "bonds": [
          {
            "atomIds": [
              1,
              2
            ],
            "bo": "TRIPLE"
          },
          {
            "atomIds": [
              0,
              1
            ],
            "bo": "SINGLE"
          },
          {
            "atomIds": [
              3,
              0
            ],
            "bo": "SINGLE"
          },
          {
            "atomIds": [
              4,
              1
            ],
            "bo": "SINGLE"
          }
        ]
      },
      "vertexId": 508002,
      "buildingBlockId": 0,
      "buildingBlockType": "SCAFFOLD",
      "isRCV": false,
      "properties": {
        "ATTACHMENT_POINTS": "1#Xlig:0:SINGLE:-2.3339%-0.0087%0.8172,Xlig:0:SINGLE:2.3360%-0.0005%0.8290,scaff:0:SINGLE:-0.0095%0.0046%-1.7113 ",
        "OLDVERTEXID": 161
      },
      "uniquefyingPropertyKeys": [],
      "allowedMutationTypes": [
        "DELETE",
        "EXTEND",
        "CHANGEBRANCH",
        "CHANGELINK",
        "ADDLINK",
        "DELETELINK",
        "DELETECHAIN"
      ],
      "vertexType": "MolecularFragment"
    },
    {
      "lstAPs": [
        {
          "id": 847521,
          "atomPositionNumber": 6,
          "atomPositionNumberInMol": -1,
          "apClass": {
            "rule": "LCycloBisAminoPhosphineSubN",
            "subClass": 0,
            "bndTyp": "SINGLE"
          },
          "dirVec": {
            "x": 2.4643006755553873,
            "y": 1.2468716069052097,
            "z": -1.9747445793829592
          }
        },
        {
          "id": 847522,
          "atomPositionNumber": 7,
          "atomPositionNumberInMol": -1,
          "apClass": {
            "rule": "LCycloBisAminoPhosphineSubN",
            "subClass": 0,
            "bndTyp": "SINGLE"
          },
          "dirVec": {
            "x": -2.667318572597261,
            "y": 0.7861314432966159,
            "z": -2.257537266040838
          }
        },
        {
          "id": 847523,
          "atomPositionNumber": 8,
          "atomPositionNumberInMol": -1,
          "apClass": {
            "rule": "LBisAminoPhosphineSubR",
            "subClass": 0,
            "bndTyp": "SINGLE"
          },
          "dirVec": {
            "x": -0.039239605339551384,
            "y": -1.7383442342568314,
            "z": -2.2805275965891076
          }
        },
        {
          "id": 847524,
          "atomPositionNumber": 8,
          "atomPositionNumberInMol": -1,
          "apClass": {
            "rule": "MBisAminoPhosphine",
            "subClass": 1,
            "bndTyp": "SINGLE"
          },
          "dirVec": {
            "x": -0.009790409017403273,
            "y": 0.004890409017403152,
            "z": 0.5540839417569379
          }
        }
      ],
      "lstSymAPs": [
        {
          "symIds": [
            0,
            1
          ]
        }
      ],
      "mol": {
        "atoms": [
          {
            "elSymbol": "C",
            "p3d": {
              "x": 0.695923955864642,
              "y": 1.301301510383336,
              "z": -3.786275761246294
            }
          },
          {
            "elSymbol": "H",
            "p3d": {
              "x": 0.7890953912753949,
              "y": 0.5398623367073316,
              "z": -4.559843863235449
            }
          },
          {
            "elSymbol": "H",
            "p3d": {
              "x": 1.2369865388567785,
              "y": 2.19869356939361,
              "z": -4.092313199660583
            }
          },
          {
            "elSymbol": "C",
            "p3d": {
              "x": -0.767092363402958,
              "y": 1.6305799666394032,
              "z": -3.560861924487552
            }
          },
          {
            "elSymbol": "H",
            "p3d": {
              "x": -0.8976241855742316,
              "y": 2.692197960691883,
              "z": -3.2742071179612435
            }
          },
          {
            "elSymbol": "H",
            "p3d": {
              "x": -1.3437529063162965,
              "y": 1.4776908163419515,
              "z": -4.4700755935270235
            }
          },
          {
            "elSymbol": "N",
            "p3d": {
              "x": 1.1855492631593463,
              "y": 0.8099717319400803,
              "z": -2.4687619824676914
            }
          },
          {
            "elSymbol": "N",
            "p3d": {
              "x": -1.2551557284633874,
              "y": 0.759938171703057,
              "z": -2.487367538570274
            }
          },
          {
            "elSymbol": "P",
            "p3d": {
              "x": -0.009509590982596726,
              "y": 0.004609590982596848,
              "z": -1.636483941756938
            }
          }
        ],
        "bonds": [
          {
            "atomIds": [
              0,
              1
            ],
            "bo": "SINGLE"
          },
          {
            "atomIds": [
              0,
              6
            ],
            "bo": "SINGLE"
          },
          {
            "atomIds": [
              2,
              0
            ],
            "bo": "SINGLE"
          },
          {
            "atomIds": [
              3,
              0
            ],
            "bo": "SINGLE"
          },
          {
            "atomIds": [
              4,
              3
            ],
            "bo": "SINGLE"
          },
          {
            "atomIds": [
              5,
              3
            ],
            "bo": "SINGLE"
          },
          {
            "atomIds": [
              6,
              8
            ],
            "bo": "SINGLE"
          },
          {
            "atomIds": [
              7,
              3
            ],
            "bo": "SINGLE"
          },
          {
            "atomIds": [
              7,
              8
            ],
            "bo": "SINGLE"
          }
        ]
      },
      "vertexId": 508003,
      "buildingBlockId": 1,
      "buildingBlockType": "FRAGMENT",
      "isRCV": false,
      "properties": {
        "ATTACHMENT_POINTS": "7#LCycloBisAminoPhosphineSubN:0:SINGLE:2.4643%1.2469%-1.9747 8#LCycloBisAminoPhosphineSubN:0:SINGLE:-2.6673%0.7861%-2.2575 9#LBisAminoPhosphineSubR:0:SINGLE:-0.0392%-1.7383%-2.2805,MBisAminoPhosphine:1:SINGLE:-0.0098%0.0049%0.5541 ",
        "OLDVERTEXID": 162
      },
      "uniquefyingPropertyKeys": [],
      "allowedMutationTypes": [
        "DELETE",
        "EXTEND",
        "CHANGEBRANCH",
        "CHANGELINK",
        "ADDLINK",
        "DELETELINK",
        "DELETECHAIN"
      ],
      "vertexType": "MolecularFragment"
    },
    {
      "lstAPs": [
        {
          "id": 847525,
          "atomPositionNumber": 0,
          "atomPositionNumberInMol": -1,
          "apClass": {
            "rule": "ATplus",
            "subClass": 0,
            "bndTyp": "ANY"
          },
          "dirVec": {
            "x": -2.667318572597261,
            "y": 0.7861314432966159,
            "z": -2.257537266040838
          }
        }
      ],
      "lstSymAPs": [],
      "mol": {
        "atoms": [
          {
            "elSymbol": "ATP",
            "p3d": {
              "x": -2.688034629340082,
              "y": 0.786515691687562,
              "z": -2.2541657165154305
            }
          }
        ],
        "bonds": []
      },
      "vertexId": 508004,
      "buildingBlockId": 78,
      "buildingBlockType": "FRAGMENT",
      "isRCV": true,
      "properties": {
        "ATTACHMENT_POINTS": "1#ATplus:0:ANY:-2.6673%0.7861%-2.2575 ",
        "OLDVERTEXID": 163
      },
      "uniquefyingPropertyKeys": [],
      "allowedMutationTypes": [
        "DELETE",
        "EXTEND",
        "CHANGEBRANCH",
        "CHANGELINK",
        "ADDLINK",
        "DELETELINK",
        "DELETECHAIN"
      ],
      "vertexType": "MolecularFragment"
    },
    {
      "lstAPs": [
        {
          "id": 847526,
          "atomPositionNumber": 0,
          "atomPositionNumberInMol": -1,
          "apClass": {
            "rule": "ATplus",
            "subClass": 0,
            "bndTyp": "ANY"
          },
          "dirVec": {
            "x": 2.4643006755553873,
            "y": 1.2468716069052097,
            "z": -1.9747445793829592
          }
        }
      ],
      "lstSymAPs": [],
      "mol": {
        "atoms": [
          {
            "elSymbol": "ATP",
            "p3d": {
              "x": 2.4829577276549566,
              "y": 1.2532459996530905,
              "z": -1.9675368388181411
            }
          }
        ],
        "bonds": []
      },
      "vertexId": 508005,
      "buildingBlockId": 78,
      "buildingBlockType": "FRAGMENT",
      "isRCV": true,
      "properties": {
        "ATTACHMENT_POINTS": "1#ATplus:0:ANY:2.4643%1.2469%-1.9747 ",
        "OLDVERTEXID": 164
      },
      "uniquefyingPropertyKeys": [],
      "allowedMutationTypes": [
        "DELETE",
        "EXTEND",
        "CHANGEBRANCH",
        "CHANGELINK",
        "ADDLINK",
        "DELETELINK",
        "DELETECHAIN"
      ],
      "vertexType": "MolecularFragment"
    },
    {
      "lstAPs": [
        {
          "id": 847527,
          "atomPositionNumber": 0,
          "atomPositionNumberInMol": -1,
          "apClass": {
            "rule": "Xlig",
            "subClass": 1,
            "bndTyp": "SINGLE"
          },
          "dirVec": {
            "x": -0.102,
            "y": 0.0185,
            "z": -1.0265
          }
        },
        {
          "id": 847528,
          "atomPositionNumber": 0,
          "atomPositionNumberInMol": -1,
          "apClass": {
            "rule": "bridge",
            "subClass": 1,
            "bndTyp": "SINGLE"
          },
          "dirVec": {
            "x": -0.626,
            "y": 2.4866,
            "z": 0.7805
          }
        }
      ],
      "lstSymAPs": [],
      "mol": {
        "atoms": [
          {
            "elSymbol": "S",
            "p3d": {
              "x": -0.3267,
              "y": 2.3403,
              "z": -1.0022
            }
          }
        ],
        "bonds": []
      },
      "vertexId": 508006,
      "buildingBlockId": 73,
      "buildingBlockType": "FRAGMENT",
      "isRCV": false,
      "properties": {
        "ATTACHMENT_POINTS": "1#Xlig:1:SINGLE:-0.1020%0.0185%-1.0265,bridge:1:SINGLE:-0.6260%2.4866%0.7805 ",
        "OLDVERTEXID": 1525
      },
      "uniquefyingPropertyKeys": [],
      "allowedMutationTypes": [
        "DELETE",
        "EXTEND",
        "CHANGEBRANCH",
        "CHANGELINK",
        "ADDLINK",
        "DELETELINK",
        "DELETECHAIN"
      ],
      "vertexType": "MolecularFragment"
    },
    {
      "lstAPs": [
        {
          "id": 847529,
          "atomPositionNumber": 0,
          "atomPositionNumberInMol": -1,
          "apClass": {
            "rule": "Xlig",
            "subClass": 1,
            "bndTyp": "SINGLE"
          },
          "dirVec": {
            "x": -0.102,
            "y": 0.0185,
            "z": -1.0265
          }
        },
        {
          "id": 847530,
          "atomPositionNumber": 0,
          "atomPositionNumberInMol": -1,
          "apClass": {
            "rule": "bridge",
            "subClass": 1,
            "bndTyp": "SINGLE"
          },
          "dirVec": {
            "x": -0.626,
            "y": 2.4866,
            "z": 0.7805
          }
        }
      ],
      "lstSymAPs": [],
      "mol": {
        "atoms": [
          {
            "elSymbol": "S",
            "p3d": {
              "x": -0.3267,
              "y": 2.3403,
              "z": -1.0022
            }
          }
        ],
        "bonds": []
      },
      "vertexId": 508007,
      "buildingBlockId": 73,
      "buildingBlockType": "FRAGMENT",
      "isRCV": false,
      "properties": {
        "ATTACHMENT_POINTS": "1#Xlig:1:SINGLE:-0.1020%0.0185%-1.0265,bridge:1:SINGLE:-0.6260%2.4866%0.7805 ",
        "OLDVERTEXID": 1506
      },
      "uniquefyingPropertyKeys": [],
      "allowedMutationTypes": [
        "DELETE",
        "EXTEND",
        "CHANGEBRANCH",
        "CHANGELINK",
        "ADDLINK",
        "DELETELINK",
        "DELETECHAIN"
      ],
      "vertexType": "MolecularFragment"
    },
    {
      "lstAPs": [
        {
          "id": 847531,
          "atomPositionNumber": 0,
          "atomPositionNumberInMol": -1,
          "apClass": {
            "rule": "me",
            "subClass": 1,
            "bndTyp": "SINGLE"
          },
          "dirVec": {
            "x": 6.4052,
            "y": 0.4666,
            "z": 7.6784
          }
        }
      ],
      "lstSymAPs": [],
      "mol": {
        "atoms": [
          {
            "elSymbol": "C",
            "p3d": {
              "x": 5.1845,
              "y": -0.3158,
              "z": 7.9034
            }
          },
          {
            "elSymbol": "H",
            "p3d": {
              "x": 4.4018,
              "y": 0.0156,
              "z": 7.2277
            }
          },
          {
            "elSymbol": "H",
            "p3d": {
              "x": 4.8466,
              "y": -0.2064,
              "z": 8.9326
            }
          },
          {
            "elSymbol": "H",
            "p3d": {
              "x": 5.4032,
              "y": -1.3837,
              "z": 7.7252
            }
          }
        ],
        "bonds": [
          {
            "atomIds": [
              1,
              0
            ],
            "bo": "SINGLE"
          },
          {
            "atomIds": [
              2,
              0
            ],
            "bo": "SINGLE"
          },
          {
            "atomIds": [
              3,
              0
            ],
            "bo": "SINGLE"
          }
        ]
      },
      "vertexId": 508008,
      "buildingBlockId": 1,
      "buildingBlockType": "CAP",
      "isRCV": false,
      "properties": {
        "ATTACHMENT_POINTS": "1#me:1:SINGLE:6.4052%0.4666%7.6784 ",
        "OLDVERTEXID": 1518
      },
      "uniquefyingPropertyKeys": [],
      "allowedMutationTypes": [
        "DELETE",
        "EXTEND",
        "CHANGEBRANCH",
        "CHANGELINK",
        "ADDLINK",
        "DELETELINK",
        "DELETECHAIN"
      ],
      "vertexType": "MolecularFragment"
    },
    {
      "lstAPs": [
        {
          "id": 847532,
          "atomPositionNumber": 0,
          "atomPositionNumberInMol": -1,
          "apClass": {
            "rule": "bridge",
            "subClass": 0,
            "bndTyp": "SINGLE"
          },
          "dirVec": {
            "x": -1.2321,
            "y": -0.7501,
            "z": -0.255
          }
        },
        {
          "id": 847533,
          "atomPositionNumber": 2,
          "atomPositionNumberInMol": -1,
          "apClass": {
            "rule": "bridge",
            "subClass": 0,
            "bndTyp": "SINGLE"
          },
          "dirVec": {
            "x": 1.2657,
            "y": -0.692,
            "z": -0.255
          }
        }
      ],
      "lstSymAPs": [
        {
          "symIds": [
            0,
            1
          ]
        }
      ],
      "mol": {
        "atoms": [
          {
            "elSymbol": "C",
            "p3d": {
              "x": -1.2657,
              "y": 0.692,
              "z": 0.255
            }
          },
          {
            "elSymbol": "C",
            "p3d": {
              "x": -0.0335,
              "y": 1.4421,
              "z": -0.255
            }
          },
          {
            "elSymbol": "C",
            "p3d": {
              "x": 1.2321,
              "y": 0.7501,
              "z": 0.255
            }
          },
          {
            "elSymbol": "H",
            "p3d": {
              "x": -2.1673,
              "y": 1.1851,
              "z": -0.1083
            }
          },
          {
            "elSymbol": "H",
            "p3d": {
              "x": -1.2657,
              "y": 0.692,
              "z": 1.345
            }
          },
          {
            "elSymbol": "H",
            "p3d": {
              "x": -0.0335,
              "y": 1.4421,
              "z": -1.345
            }
          },
          {
            "elSymbol": "H",
            "p3d": {
              "x": -0.0574,
              "y": 2.4695,
              "z": 0.1083
            }
          },
          {
            "elSymbol": "H",
            "p3d": {
              "x": 2.11,
              "y": 1.2844,
              "z": -0.1083
            }
          },
          {
            "elSymbol": "H",
            "p3d": {
              "x": 1.2321,
              "y": 0.7501,
              "z": 1.345
            }
          }
        ],
        "bonds": [
          {
            "atomIds": [
              0,
              1
            ],
            "bo": "SINGLE"
          },
          {
            "atomIds": [
              1,
              2
            ],
            "bo": "SINGLE"
          },
          {
            "atomIds": [
              0,
              3
            ],
            "bo": "SINGLE"
          },
          {
            "atomIds": [
              0,
              4
            ],
            "bo": "SINGLE"
          },
          {
            "atomIds": [
              1,
              5
            ],
            "bo": "SINGLE"
          },
          {
            "atomIds": [
              1,
              6
            ],
            "bo": "SINGLE"
          },
          {
            "atomIds": [
              2,
              7
            ],
            "bo": "SINGLE"
          },
          {
            "atomIds": [
              2,
              8
            ],
            "bo": "SINGLE"
          }
        ]
      },
      "vertexId": 508009,
      "buildingBlockId": 64,
      "buildingBlockType": "FRAGMENT",
      "isRCV": false,
      "properties": {
        "ATTACHMENT_POINTS": "1#bridge:0:SINGLE:-1.2321%-0.7501%-0.2550 3#bridge:0:SINGLE:1.2657%-0.6920%-0.2550 ",
        "OLDVERTEXID": 37585
      },
      "uniquefyingPropertyKeys": [],
      "allowedMutationTypes": [
        "DELETE",
        "EXTEND",
        "CHANGEBRANCH",
        "CHANGELINK",
        "ADDLINK",
        "DELETELINK",
        "DELETECHAIN"
      ],
      "vertexType": "MolecularFragment"
    },
    {
      "lstAPs": [
        {
          "id": 847534,
          "atomPositionNumber": 0,
          "atomPositionNumberInMol": -1,
          "apClass": {
            "rule": "bridge",
            "subClass": 0,
            "bndTyp": "SINGLE"
          },
          "dirVec": {
            "x": -1.2321,
            "y": -0.7501,
            "z": -0.255
          }
        },
        {
          "id": 847535,
          "atomPositionNumber": 2,
          "atomPositionNumberInMol": -1,
          "apClass": {
            "rule": "bridge",
            "subClass": 0,
            "bndTyp": "SINGLE"
          },
          "dirVec": {
            "x": 1.2657,
            "y": -0.692,
            "z": -0.255
          }
        }
      ],
      "lstSymAPs": [
        {
          "symIds": [
            0,
            1
          ]
        }
      ],
      "mol": {
        "atoms": [
          {
            "elSymbol": "C",
            "p3d": {
              "x": -1.2657,
              "y": 0.692,
              "z": 0.255
            }
          },
          {
            "elSymbol": "C",
            "p3d": {
              "x": -0.0335,
              "y": 1.4421,
              "z": -0.255
            }
          },
          {
            "elSymbol": "C",
            "p3d": {
              "x": 1.2321,
              "y": 0.7501,
              "z": 0.255
            }
          },
          {
            "elSymbol": "H",
            "p3d": {
              "x": -2.1673,
              "y": 1.1851,
              "z": -0.1083
            }
          },
          {
            "elSymbol": "H",
            "p3d": {
              "x": -1.2657,
              "y": 0.692,
              "z": 1.345
            }
          },
          {
            "elSymbol": "H",
            "p3d": {
              "x": -0.0335,
              "y": 1.4421,
              "z": -1.345
            }
          },
          {
            "elSymbol": "H",
            "p3d": {
              "x": -0.0574,
              "y": 2.4695,
              "z": 0.1083
            }
          },
          {
            "elSymbol": "H",
            "p3d": {
              "x": 2.11,
              "y": 1.2844,
              "z": -0.1083
            }
          },
          {
            "elSymbol": "H",
            "p3d": {
              "x": 1.2321,
              "y": 0.7501,
              "z": 1.345
            }
          }
        ],
        "bonds": [
          {
            "atomIds": [
              0,
              1
            ],
            "bo": "SINGLE"
          },
          {
            "atomIds": [
              1,
              2
            ],
            "bo": "SINGLE"
          },
          {
            "atomIds": [
              0,
              3
            ],
            "bo": "SINGLE"
          },
          {
            "atomIds": [
              0,
              4
            ],
            "bo": "SINGLE"
          },
          {
            "atomIds": [
              1,
              5
            ],
            "bo": "SINGLE"
          },
          {
            "atomIds": [
              1,
              6
            ],
            "bo": "SINGLE"
          },
          {
            "atomIds": [
              2,
              7
            ],
            "bo": "SINGLE"
          },
          {
            "atomIds": [
              2,
              8
            ],
            "bo": "SINGLE"
          }
        ]
      },
      "vertexId": 508010,
      "buildingBlockId": 64,
      "buildingBlockType": "FRAGMENT",
      "isRCV": false,
      "properties": {
        "ATTACHMENT_POINTS": "1#bridge:0:SINGLE:-1.2321%-0.7501%-0.2550 3#bridge:0:SINGLE:1.2657%-0.6920%-0.2550 ",
        "OLDVERTEXID": 37608
      },
      "uniquefyingPropertyKeys": [],
      "allowedMutationTypes": [
        "DELETE",
        "EXTEND",
        "CHANGEBRANCH",
        "CHANGELINK",
        "ADDLINK",
        "DELETELINK",
        "DELETECHAIN"
      ],
      "vertexType": "MolecularFragment"
    },
    {
      "lstAPs": [
        {
          "id": 847536,
          "atomPositionNumber": 0,
          "atomPositionNumberInMol": -1,
          "apClass": {
            "rule": "ATminus",
            "subClass": 0,
            "bndTyp": "ANY"
          },
          "dirVec": {
            "x": 0.0109,
            "y": -0.0071,
            "z": 0.0026
          }
        }
      ],
      "lstSymAPs": [],
      "mol": {
        "atoms": [
          {
            "elSymbol": "ATM",
            "p3d": {
              "x": -0.0096,
              "y": 0.0045,
              "z": -0.0011
            }
          }
        ],
        "bonds": []
      },
      "vertexId": 508011,
      "buildingBlockId": 79,
      "buildingBlockType": "FRAGMENT",
      "isRCV": true,
      "properties": {
        "ATTACHMENT_POINTS": "1#ATminus:0:ANY:0.0109%-0.0071%0.0026 ",
        "OLDVERTEXID": 507784
      },
      "uniquefyingPropertyKeys": [],
      "allowedMutationTypes": [
        "DELETE",
        "EXTEND",
        "CHANGEBRANCH",
        "CHANGELINK",
        "ADDLINK",
        "DELETELINK",
        "DELETECHAIN"
      ],
      "vertexType": "MolecularFragment"
    },
    {
      "lstAPs": [
        {
          "id": 847537,
          "atomPositionNumber": 0,
          "atomPositionNumberInMol": -1,
          "apClass": {
            "rule": "ATminus",
            "subClass": 0,
            "bndTyp": "ANY"
          },
          "dirVec": {
            "x": 0.0109,
            "y": -0.0071,
            "z": 0.0026
          }
        }
      ],
      "lstSymAPs": [],
      "mol": {
        "atoms": [
          {
            "elSymbol": "ATM",
            "p3d": {
              "x": -0.0096,
              "y": 0.0045,
              "z": -0.0011
            }
          }
        ],
        "bonds": []
      },
      "vertexId": 508012,
      "buildingBlockId": 79,
      "buildingBlockType": "FRAGMENT",
      "isRCV": true,
      "properties": {
        "ATTACHMENT_POINTS": "1#ATminus:0:ANY:0.0109%-0.0071%0.0026 ",
        "OLDVERTEXID": 507786
      },
      "uniquefyingPropertyKeys": [],
      "allowedMutationTypes": [
        "DELETE",
        "EXTEND",
        "CHANGEBRANCH",
        "CHANGELINK",
        "ADDLINK",
        "DELETELINK",
        "DELETECHAIN"
      ],
      "vertexType": "MolecularFragment"
    }
  ],
  "gEdges": [
    {
      "srcAPID": 847520,
      "trgAPID": 847524,
      "bondType": "SINGLE"
    },
    {
      "srcAPID": 847522,
      "trgAPID": 847525,
      "bondType": "SINGLE"
    },
    {
      "srcAPID": 847521,
      "trgAPID": 847526,
      "bondType": "SINGLE"
    },
    {
      "srcAPID": 847519,
      "trgAPID": 847527,
      "bondType": "SINGLE"
    },
    {
      "srcAPID": 847518,
      "trgAPID": 847529,
      "bondType": "SINGLE"
    },
    {
      "srcAPID": 847523,
      "trgAPID": 847531,
      "bondType": "SINGLE"
    },
    {
      "srcAPID": 847528,
      "trgAPID": 847533,
      "bondType": "SINGLE"
    },
    {
      "srcAPID": 847530,
      "trgAPID": 847535,
      "bondType": "SINGLE"
    },
    {
      "srcAPID": 847532,
      "trgAPID": 847536,
      "bondType": "SINGLE"
    },
    {
      "srcAPID": 847534,
      "trgAPID": 847537,
      "bondType": "SINGLE"
    }
  ],
  "gRings": [
    {
      "vertices": [
        508004,
        508003,
        508002,
        508006,
        508009,
        508011
      ],
      "bndTyp": "SINGLE"
    },
    {
      "vertices": [
        508005,
        508003,
        508002,
        508007,
        508010,
        508012
      ],
      "bndTyp": "SINGLE"
    }
  ],
  "symVertices": [
    {
      "symIds": [
        508004,
        508005
      ]
    },
    {
      "symIds": [
        508006,
        508007
      ]
    },
    {
      "symIds": [
        508009,
        508010
      ]
    },
    {
      "symIds": [
        508011,
        508012
      ]
    }
  ]
}

> <SMILES>
[Pt]12(C#O)[P]3(N(C([H])([H])C([H])([H])N3C(C(C([H])([H])S1)([H])[H])([H])[H])C(C(C([H])([H])S2)([H])[H])([H])[H])C([H])([H])[H]

$$$$
