M30079280
  CDK     05082205493D

 30 32  0  0  0  0  0  0  0  0999 V2000
   -0.0135    0.0212    2.6025 Pt  0  0  0  0  0  0  0  0  0  0  0  0
   -0.0236    0.0369    4.5547 C   0  0  0  0  0  0  0  0  0  0  0  0
   -0.0295    0.0461    5.6951 O   0  0  0  0  0  0  0  0  0  0  0  0
   -1.0670    0.3413   -0.1600 N   0  0  2  0  0  0  0  0  0  0  0  0
   -0.0031    0.0051    0.6169 C   0  0  0  0  0  0  0  0  0  0  0  0
    1.0687   -0.3436   -0.1433 N   0  0  2  0  0  0  0  0  0  0  0  0
    0.7751   -0.2131   -1.6168 C   0  0  1  0  0  0  0  0  0  0  0  0
   -0.7584    0.1866   -1.6280 C   0  0  1  0  0  0  0  0  0  0  0  0
    0.9313   -1.2088   -2.1020 H   0  0  0  0  0  0  0  0  0  0  0  0
   -0.9095    1.1741   -2.1311 H   0  0  0  0  0  0  0  0  0  0  0  0
   -1.6268   -0.8793   -2.2731 C   0  0  0  0  0  0  0  0  0  0  0  0
   -2.6936   -0.6127   -2.2447 H   0  0  0  0  0  0  0  0  0  0  0  0
   -1.3644   -1.0286   -3.3287 H   0  0  0  0  0  0  0  0  0  0  0  0
   -1.5431   -1.8542   -1.7702 H   0  0  0  0  0  0  0  0  0  0  0  0
    1.6502    0.8421   -2.2705 C   0  0  0  0  0  0  0  0  0  0  0  0
    2.7168    0.5767   -2.2257 H   0  0  0  0  0  0  0  0  0  0  0  0
    1.3995    0.9728   -3.3314 H   0  0  0  0  0  0  0  0  0  0  0  0
    1.5605    1.8255   -1.7856 H   0  0  0  0  0  0  0  0  0  0  0  0
   -2.0556   -0.2522    2.6473 O   0  0  0  0  0  0  0  0  0  0  0  0
   -3.9751   -0.4936    1.5967 O   0  0  0  0  0  0  0  0  0  0  0  0
   -2.8434   -0.0689    1.5970 C   0  0  0  0  0  0  0  0  0  0  0  0
   -2.3366    0.7971    0.4151 C   0  0  0  0  0  0  0  0  0  0  0  0
   -3.1318    0.8009   -0.3689 H   0  0  0  0  0  0  0  0  0  0  0  0
   -2.2372    1.8515    0.7772 H   0  0  0  0  0  0  0  0  0  0  0  0
    2.0280    0.2953    2.6641 O   0  0  0  0  0  0  0  0  0  0  0  0
    3.9584    0.5201    1.6297 O   0  0  0  0  0  0  0  0  0  0  0  0
    2.8267    0.0953    1.6251 C   0  0  0  0  0  0  0  0  0  0  0  0
    2.3323   -0.7897    0.4521 C   0  0  0  0  0  0  0  0  0  0  0  0
    3.1356   -0.8058   -0.3235 H   0  0  0  0  0  0  0  0  0  0  0  0
    2.2292   -1.8382    0.8300 H   0  0  0  0  0  0  0  0  0  0  0  0
  2  3  3  0  0  0  0
  1  2  1  0  0  0  0
  4  5  1  0  0  0  0
  6  5  1  0  0  0  0
  7  6  1  0  0  0  0
  7  8  1  0  0  0  0
  8  4  1  0  0  0  0
  9  7  1  0  0  0  0
 10  8  1  0  0  0  0
  1  5  1  0  0  0  0
 11 12  1  0  0  0  0
 11 13  1  0  0  0  0
 11 14  1  0  0  0  0
  8 11  1  0  0  0  0
 15 16  1  0  0  0  0
 15 17  1  0  0  0  0
 15 18  1  0  0  0  0
  7 15  1  0  0  0  0
 20 21  2  0  0  0  0
 21 19  1  0  0  0  0
  1 19  1  0  0  0  0
 22 23  1  0  0  0  0
 22 24  1  0  0  0  0
 21 22  1  0  0  0  0
 26 27  2  0  0  0  0
 27 25  1  0  0  0  0
  1 25  1  0  0  0  0
 28 29  1  0  0  0  0
 28 30  1  0  0  0  0
 27 28  1  0  0  0  0
  6 28  1  0  0  0  0
  4 22  1  0  0  0  0
M  END
> <PM6_ENERGY>
-607.107

> <UID>
MLLXASDHEUXBSF-TXKLKARANA-L

> <FITNESS>
1.14045

> <GCODE>
177402

> <GraphENC>
177402 9782714_1_0,9782715_60_1,9782716_79_1,9782717_79_1,9782718_76_1,9782719_24_1,9782720_24_1,9782721_76_1,9782722_67_1,9782723_67_1,9782724_80_1,9782725_80_1, 9782714_2_9782715_1_SINGLE_scaff:0_MImidazolidinylidene:1,9782715_2_9782716_0_SINGLE_LImidazolidinylideneSubNL:0_ATplus:0,9782715_0_9782717_0_SINGLE_LImidazolidinylideneSubNL:0_ATplus:0,9782714_0_9782718_0_SINGLE_Xlig:0_Xlig:1,9782715_4_9782719_0_SINGLE_LImidazolidinylideneSubCL:0_SubRS:1,9782715_3_9782720_0_SINGLE_LImidazolidinylideneSubCL:0_SubRS:1,9782714_1_9782721_0_SINGLE_Xlig:0_Xlig:1,9782718_1_9782722_0_SINGLE_bridge:1_bridge:0,9782721_1_9782723_0_SINGLE_bridge:1_bridge:0,9782722_1_9782724_0_SINGLE_bridge:0_ATminus:0,9782723_1_9782725_0_SINGLE_bridge:0_ATminus:0, DENOPTIMRing [vertices=[9782717_79_1, 9782715_60_1, 9782714_1_0, 9782718_76_1, 9782722_67_1, 9782724_80_1]] DENOPTIMRing [vertices=[9782716_79_1, 9782715_60_1, 9782714_1_0, 9782721_76_1, 9782723_67_1, 9782725_80_1]] SymmetricSet [symIds=[9782716, 9782717]] SymmetricSet [symIds=[9782718, 9782721]] SymmetricSet [symIds=[9782719, 9782720]] SymmetricSet [symIds=[9782722, 9782723]] SymmetricSet [symIds=[9782724, 9782725]] 

> <GraphJson>
{
  "graphId": 177402,
  "gVertices": [
    {
      "lstAPs": [
        {
          "id": 16373690,
          "atomPositionNumber": 0,
          "atomPositionNumberInMol": -1,
          "apClass": {
            "rule": "Xlig",
            "subClass": 0,
            "bndTyp": "SINGLE"
          },
          "dirVec": {
            "x": -2.3339,
            "y": -0.0087,
            "z": 0.8172
          }
        },
        {
          "id": 16373691,
          "atomPositionNumber": 0,
          "atomPositionNumberInMol": -1,
          "apClass": {
            "rule": "Xlig",
            "subClass": 0,
            "bndTyp": "SINGLE"
          },
          "dirVec": {
            "x": 2.336,
            "y": -5.0E-4,
            "z": 0.829
          }
        },
        {
          "id": 16373692,
          "atomPositionNumber": 0,
          "atomPositionNumberInMol": -1,
          "apClass": {
            "rule": "scaff",
            "subClass": 0,
            "bndTyp": "SINGLE"
          },
          "dirVec": {
            "x": -0.0095,
            "y": 0.0046,
            "z": -1.7113
          }
        }
      ],
      "lstSymAPs": [
        {
          "symIds": [
            0,
            1
          ]
        }
      ],
      "mol": {
        "atoms": [
          {
            "elSymbol": "Pt",
            "p3d": {
              "x": -0.0098,
              "y": 0.0049,
              "z": 0.6289
            }
          },
          {
            "elSymbol": "C",
            "p3d": {
              "x": -6.0E-4,
              "y": 0.0016,
              "z": 2.5609
            }
          },
          {
            "elSymbol": "O",
            "p3d": {
              "x": 0.0025,
              "y": -0.0041,
              "z": 3.6974
            }
          },
          {
            "elSymbol": "Du",
            "p3d": {
              "x": -0.007,
              "y": 1.0013,
              "z": 0.6372
            }
          },
          {
            "elSymbol": "Du",
            "p3d": {
              "x": -0.0014,
              "y": 0.9902,
              "z": 2.5698
            }
          }
        ],
        "bonds": [
          {
            "atomIds": [
              1,
              2
            ],
            "bo": "TRIPLE"
          },
          {
            "atomIds": [
              0,
              1
            ],
            "bo": "SINGLE"
          },
          {
            "atomIds": [
              3,
              0
            ],
            "bo": "SINGLE"
          },
          {
            "atomIds": [
              4,
              1
            ],
            "bo": "SINGLE"
          }
        ]
      },
      "vertexId": 9782714,
      "buildingBlockId": 0,
      "buildingBlockType": "SCAFFOLD",
      "isRCV": false,
      "properties": {
        "ATTACHMENT_POINTS": "1#Xlig:0:SINGLE:-2.3339%-0.0087%0.8172,Xlig:0:SINGLE:2.3360%-0.0005%0.8290,scaff:0:SINGLE:-0.0095%0.0046%-1.7113 ",
        "OLDVERTEXID": 205
      },
      "uniquefyingPropertyKeys": [],
      "allowedMutationTypes": [
        "DELETE",
        "EXTEND",
        "CHANGEBRANCH",
        "CHANGELINK",
        "ADDLINK",
        "DELETELINK",
        "DELETECHAIN"
      ],
      "vertexType": "MolecularFragment"
    },
    {
      "lstAPs": [
        {
          "id": 16373693,
          "atomPositionNumber": 0,
          "atomPositionNumberInMol": -1,
          "apClass": {
            "rule": "LImidazolidinylideneSubNL",
            "subClass": 0,
            "bndTyp": "SINGLE"
          },
          "dirVec": {
            "x": 0.9114374237224112,
            "y": -2.269162114034064,
            "z": -1.73512216162091
          }
        },
        {
          "id": 16373694,
          "atomPositionNumber": 1,
          "atomPositionNumberInMol": -1,
          "apClass": {
            "rule": "MImidazolidinylidene",
            "subClass": 1,
            "bndTyp": "SINGLE"
          },
          "dirVec": {
            "x": -0.009781397536660474,
            "y": 0.004881397536660548,
            "z": 0.4837883843094877
          }
        },
        {
          "id": 16373695,
          "atomPositionNumber": 2,
          "atomPositionNumberInMol": -1,
          "apClass": {
            "rule": "LImidazolidinylideneSubNL",
            "subClass": 0,
            "bndTyp": "SINGLE"
          },
          "dirVec": {
            "x": -0.9076453420528022,
            "y": 2.2675608164958976,
            "z": -1.810031993173502
          }
        },
        {
          "id": 16373696,
          "atomPositionNumber": 3,
          "atomPositionNumberInMol": -1,
          "apClass": {
            "rule": "LImidazolidinylideneSubCL",
            "subClass": 0,
            "bndTyp": "SINGLE"
          },
          "dirVec": {
            "x": -1.9597652498362117,
            "y": 0.3654872507731368,
            "z": -4.371946970338932
          }
        },
        {
          "id": 16373697,
          "atomPositionNumber": 4,
          "atomPositionNumberInMol": -1,
          "apClass": {
            "rule": "LImidazolidinylideneSubCL",
            "subClass": 0,
            "bndTyp": "SINGLE"
          },
          "dirVec": {
            "x": 1.7398715117890693,
            "y": -0.589379512252807,
            "z": -4.485128403883309
          }
        }
      ],
      "lstSymAPs": [
        {
          "symIds": [
            0,
            2
          ]
        },
        {
          "symIds": [
            3,
            4
          ]
        }
      ],
      "mol": {
        "atoms": [
          {
            "elSymbol": "N",
            "p3d": {
              "x": 0.4620029374357079,
              "y": -1.0012870581278954,
              "z": -2.317095069192333
            }
          },
          {
            "elSymbol": "C",
            "p3d": {
              "x": -0.009518602463339527,
              "y": 0.004618602463339452,
              "z": -1.5661883843094881
            }
          },
          {
            "elSymbol": "N",
            "p3d": {
              "x": -0.495416972415669,
              "y": 0.9580453104531106,
              "z": -2.3396500165637697
            }
          },
          {
            "elSymbol": "C",
            "p3d": {
              "x": -0.5068910066519264,
              "y": 0.5648308504550289,
              "z": -3.756401291483529
            }
          },
          {
            "elSymbol": "C",
            "p3d": {
              "x": 0.3605416829394851,
              "y": -0.6971172079421345,
              "z": -3.770728780301849
            }
          },
          {
            "elSymbol": "H",
            "p3d": {
              "x": -0.1309303334286437,
              "y": 1.330189770633253,
              "z": -4.435352464612437
            }
          },
          {
            "elSymbol": "H",
            "p3d": {
              "x": -0.08828628907134929,
              "y": -1.5032723399177854,
              "z": -4.3711397435011925
            }
          }
        ],
        "bonds": [
          {
            "atomIds": [
              0,
              1
            ],
            "bo": "SINGLE"
          },
          {
            "atomIds": [
              2,
              1
            ],
            "bo": "SINGLE"
          },
          {
            "atomIds": [
              3,
              2
            ],
            "bo": "SINGLE"
          },
          {
            "atomIds": [
              3,
              4
            ],
            "bo": "SINGLE"
          },
          {
            "atomIds": [
              4,
              0
            ],
            "bo": "SINGLE"
          },
          {
            "atomIds": [
              5,
              3
            ],
            "bo": "SINGLE"
          },
          {
            "atomIds": [
              6,
              4
            ],
            "bo": "SINGLE"
          }
        ]
      },
      "vertexId": 9782715,
      "buildingBlockId": 59,
      "buildingBlockType": "FRAGMENT",
      "isRCV": false,
      "properties": {
        "ATTACHMENT_POINTS": "1#LImidazolidinylideneSubNL:0:SINGLE:0.9114%-2.2692%-1.7351 2#MImidazolidinylidene:1:SINGLE:-0.0098%0.0049%0.4838 3#LImidazolidinylideneSubNL:0:SINGLE:-0.9076%2.2676%-1.8100 4#LImidazolidinylideneSubCL:0:SINGLE:-1.9598%0.3655%-4.3719 5#LImidazolidinylideneSubCL:0:SINGLE:1.7399%-0.5894%-4.4851 ",
        "OLDVERTEXID": 206
      },
      "uniquefyingPropertyKeys": [],
      "allowedMutationTypes": [
        "DELETE",
        "EXTEND",
        "CHANGEBRANCH",
        "CHANGELINK",
        "ADDLINK",
        "DELETELINK",
        "DELETECHAIN"
      ],
      "vertexType": "MolecularFragment"
    },
    {
      "lstAPs": [
        {
          "id": 16373698,
          "atomPositionNumber": 0,
          "atomPositionNumberInMol": -1,
          "apClass": {
            "rule": "ATplus",
            "subClass": 0,
            "bndTyp": "ANY"
          },
          "dirVec": {
            "x": -0.9076453420528022,
            "y": 2.2675608164958976,
            "z": -1.810031993173502
          }
        }
      ],
      "lstSymAPs": [],
      "mol": {
        "atoms": [
          {
            "elSymbol": "ATP",
            "p3d": {
              "x": -0.9135261874114748,
              "y": 2.2862423502113005,
              "z": -1.8024764683136634
            }
          }
        ],
        "bonds": []
      },
      "vertexId": 9782716,
      "buildingBlockId": 78,
      "buildingBlockType": "FRAGMENT",
      "isRCV": true,
      "properties": {
        "ATTACHMENT_POINTS": "1#ATplus:0:ANY:-0.9076%2.2676%-1.8100 ",
        "OLDVERTEXID": 207
      },
      "uniquefyingPropertyKeys": [],
      "allowedMutationTypes": [
        "DELETE",
        "EXTEND",
        "CHANGEBRANCH",
        "CHANGELINK",
        "ADDLINK",
        "DELETELINK",
        "DELETECHAIN"
      ],
      "vertexType": "MolecularFragment"
    },
    {
      "lstAPs": [
        {
          "id": 16373699,
          "atomPositionNumber": 0,
          "atomPositionNumberInMol": -1,
          "apClass": {
            "rule": "ATplus",
            "subClass": 0,
            "bndTyp": "ANY"
          },
          "dirVec": {
            "x": 0.9114374237224112,
            "y": -2.269162114034064,
            "z": -1.73512216162091
          }
        }
      ],
      "lstSymAPs": [],
      "mol": {
        "atoms": [
          {
            "elSymbol": "ATP",
            "p3d": {
              "x": 0.9178744709033246,
              "y": -2.28732131588304,
              "z": -1.7267868264867459
            }
          }
        ],
        "bonds": []
      },
      "vertexId": 9782717,
      "buildingBlockId": 78,
      "buildingBlockType": "FRAGMENT",
      "isRCV": true,
      "properties": {
        "ATTACHMENT_POINTS": "1#ATplus:0:ANY:0.9114%-2.2692%-1.7351 ",
        "OLDVERTEXID": 208
      },
      "uniquefyingPropertyKeys": [],
      "allowedMutationTypes": [
        "DELETE",
        "EXTEND",
        "CHANGEBRANCH",
        "CHANGELINK",
        "ADDLINK",
        "DELETELINK",
        "DELETECHAIN"
      ],
      "vertexType": "MolecularFragment"
    },
    {
      "lstAPs": [
        {
          "id": 16373700,
          "atomPositionNumber": 0,
          "atomPositionNumberInMol": -1,
          "apClass": {
            "rule": "Xlig",
            "subClass": 1,
            "bndTyp": "SINGLE"
          },
          "dirVec": {
            "x": 2.9612,
            "y": 0.482,
            "z": 3.1597
          }
        },
        {
          "id": 16373701,
          "atomPositionNumber": 2,
          "atomPositionNumberInMol": -1,
          "apClass": {
            "rule": "bridge",
            "subClass": 1,
            "bndTyp": "SINGLE"
          },
          "dirVec": {
            "x": 0.31479999999999997,
            "y": 0.7222,
            "z": 2.0817
          }
        }
      ],
      "lstSymAPs": [],
      "mol": {
        "atoms": [
          {
            "elSymbol": "O",
            "p3d": {
              "x": 2.5349,
              "y": 1.3185,
              "z": 1.3621
            }
          },
          {
            "elSymbol": "O",
            "p3d": {
              "x": 0.8537,
              "y": 1.7439,
              "z": 0.0154
            }
          },
          {
            "elSymbol": "C",
            "p3d": {
              "x": 1.2704,
              "y": 1.2787,
              "z": 1.0674
            }
          }
        ],
        "bonds": [
          {
            "atomIds": [
              1,
              2
            ],
            "bo": "DOUBLE"
          },
          {
            "atomIds": [
              2,
              0
            ],
            "bo": "SINGLE"
          }
        ]
      },
      "vertexId": 9782718,
      "buildingBlockId": 75,
      "buildingBlockType": "FRAGMENT",
      "isRCV": false,
      "properties": {
        "ATTACHMENT_POINTS": "1#Xlig:1:SINGLE:2.9612%0.4820%3.1597 3#bridge:1:SINGLE:0.3148%0.7222%2.0817 ",
        "OLDVERTEXID": 8380
      },
      "uniquefyingPropertyKeys": [],
      "allowedMutationTypes": [
        "DELETE",
        "EXTEND",
        "CHANGEBRANCH",
        "CHANGELINK",
        "ADDLINK",
        "DELETELINK",
        "DELETECHAIN"
      ],
      "vertexType": "MolecularFragment"
    },
    {
      "lstAPs": [
        {
          "id": 16373702,
          "atomPositionNumber": 0,
          "atomPositionNumberInMol": -1,
          "apClass": {
            "rule": "SubRS",
            "subClass": 1,
            "bndTyp": "SINGLE"
          },
          "dirVec": {
            "x": 0.2865,
            "y": 0.3959,
            "z": -0.6387
          }
        }
      ],
      "lstSymAPs": [],
      "mol": {
        "atoms": [
          {
            "elSymbol": "C",
            "p3d": {
              "x": 0.3969,
              "y": -0.0496,
              "z": 0.8235
            }
          },
          {
            "elSymbol": "H",
            "p3d": {
              "x": -0.6146,
              "y": -0.163,
              "z": 1.2402
            }
          },
          {
            "elSymbol": "H",
            "p3d": {
              "x": 0.9335,
              "y": -0.9979,
              "z": 0.8998
            }
          },
          {
            "elSymbol": "H",
            "p3d": {
              "x": 0.9252,
              "y": 0.7237,
              "z": 1.3995
            }
          }
        ],
        "bonds": [
          {
            "atomIds": [
              0,
              1
            ],
            "bo": "SINGLE"
          },
          {
            "atomIds": [
              0,
              2
            ],
            "bo": "SINGLE"
          },
          {
            "atomIds": [
              0,
              3
            ],
            "bo": "SINGLE"
          }
        ]
      },
      "vertexId": 9782719,
      "buildingBlockId": 23,
      "buildingBlockType": "FRAGMENT",
      "isRCV": false,
      "properties": {
        "ATTACHMENT_POINTS": "1#SubRS:1:SINGLE:0.2865%0.3959%-0.6387 ",
        "OLDVERTEXID": 8815
      },
      "uniquefyingPropertyKeys": [],
      "allowedMutationTypes": [
        "DELETE",
        "EXTEND",
        "CHANGEBRANCH",
        "CHANGELINK",
        "ADDLINK",
        "DELETELINK",
        "DELETECHAIN"
      ],
      "vertexType": "MolecularFragment"
    },
    {
      "lstAPs": [
        {
          "id": 16373703,
          "atomPositionNumber": 0,
          "atomPositionNumberInMol": -1,
          "apClass": {
            "rule": "SubRS",
            "subClass": 1,
            "bndTyp": "SINGLE"
          },
          "dirVec": {
            "x": 0.2865,
            "y": 0.3959,
            "z": -0.6387
          }
        }
      ],
      "lstSymAPs": [],
      "mol": {
        "atoms": [
          {
            "elSymbol": "C",
            "p3d": {
              "x": 0.3969,
              "y": -0.0496,
              "z": 0.8235
            }
          },
          {
            "elSymbol": "H",
            "p3d": {
              "x": -0.6146,
              "y": -0.163,
              "z": 1.2402
            }
          },
          {
            "elSymbol": "H",
            "p3d": {
              "x": 0.9335,
              "y": -0.9979,
              "z": 0.8998
            }
          },
          {
            "elSymbol": "H",
            "p3d": {
              "x": 0.9252,
              "y": 0.7237,
              "z": 1.3995
            }
          }
        ],
        "bonds": [
          {
            "atomIds": [
              0,
              1
            ],
            "bo": "SINGLE"
          },
          {
            "atomIds": [
              0,
              2
            ],
            "bo": "SINGLE"
          },
          {
            "atomIds": [
              0,
              3
            ],
            "bo": "SINGLE"
          }
        ]
      },
      "vertexId": 9782720,
      "buildingBlockId": 23,
      "buildingBlockType": "FRAGMENT",
      "isRCV": false,
      "properties": {
        "ATTACHMENT_POINTS": "1#SubRS:1:SINGLE:0.2865%0.3959%-0.6387 ",
        "OLDVERTEXID": 8385
      },
      "uniquefyingPropertyKeys": [],
      "allowedMutationTypes": [
        "DELETE",
        "EXTEND",
        "CHANGEBRANCH",
        "CHANGELINK",
        "ADDLINK",
        "DELETELINK",
        "DELETECHAIN"
      ],
      "vertexType": "MolecularFragment"
    },
    {
      "lstAPs": [
        {
          "id": 16373704,
          "atomPositionNumber": 0,
          "atomPositionNumberInMol": -1,
          "apClass": {
            "rule": "Xlig",
            "subClass": 1,
            "bndTyp": "SINGLE"
          },
          "dirVec": {
            "x": 2.9612,
            "y": 0.482,
            "z": 3.1597
          }
        },
        {
          "id": 16373705,
          "atomPositionNumber": 2,
          "atomPositionNumberInMol": -1,
          "apClass": {
            "rule": "bridge",
            "subClass": 1,
            "bndTyp": "SINGLE"
          },
          "dirVec": {
            "x": 0.31479999999999997,
            "y": 0.7222,
            "z": 2.0817
          }
        }
      ],
      "lstSymAPs": [],
      "mol": {
        "atoms": [
          {
            "elSymbol": "O",
            "p3d": {
              "x": 2.5349,
              "y": 1.3185,
              "z": 1.3621
            }
          },
          {
            "elSymbol": "O",
            "p3d": {
              "x": 0.8537,
              "y": 1.7439,
              "z": 0.0154
            }
          },
          {
            "elSymbol": "C",
            "p3d": {
              "x": 1.2704,
              "y": 1.2787,
              "z": 1.0674
            }
          }
        ],
        "bonds": [
          {
            "atomIds": [
              1,
              2
            ],
            "bo": "DOUBLE"
          },
          {
            "atomIds": [
              2,
              0
            ],
            "bo": "SINGLE"
          }
        ]
      },
      "vertexId": 9782721,
      "buildingBlockId": 75,
      "buildingBlockType": "FRAGMENT",
      "isRCV": false,
      "properties": {
        "ATTACHMENT_POINTS": "1#Xlig:1:SINGLE:2.9612%0.4820%3.1597 3#bridge:1:SINGLE:0.3148%0.7222%2.0817 ",
        "OLDVERTEXID": 8814
      },
      "uniquefyingPropertyKeys": [],
      "allowedMutationTypes": [
        "DELETE",
        "EXTEND",
        "CHANGEBRANCH",
        "CHANGELINK",
        "ADDLINK",
        "DELETELINK",
        "DELETECHAIN"
      ],
      "vertexType": "MolecularFragment"
    },
    {
      "lstAPs": [
        {
          "id": 16373706,
          "atomPositionNumber": 0,
          "atomPositionNumberInMol": -1,
          "apClass": {
            "rule": "bridge",
            "subClass": 0,
            "bndTyp": "SINGLE"
          },
          "dirVec": {
            "x": -1.0417,
            "y": -0.7693,
            "z": 0.07320000000000002
          }
        },
        {
          "id": 16373707,
          "atomPositionNumber": 0,
          "atomPositionNumberInMol": -1,
          "apClass": {
            "rule": "bridge",
            "subClass": 0,
            "bndTyp": "SINGLE"
          },
          "dirVec": {
            "x": 1.2664,
            "y": -1.9999999999997797E-4,
            "z": 0.2522
          }
        }
      ],
      "lstSymAPs": [
        {
          "symIds": [
            0,
            1
          ]
        }
      ],
      "mol": {
        "atoms": [
          {
            "elSymbol": "C",
            "p3d": {
              "x": 0.4112,
              "y": -1.2101,
              "z": -0.1993
            }
          },
          {
            "elSymbol": "H",
            "p3d": {
              "x": 0.6587,
              "y": -2.0933,
              "z": 0.3897
            }
          },
          {
            "elSymbol": "H",
            "p3d": {
              "x": 0.5577,
              "y": -1.4056,
              "z": -1.2616
            }
          }
        ],
        "bonds": [
          {
            "atomIds": [
              0,
              1
            ],
            "bo": "SINGLE"
          },
          {
            "atomIds": [
              0,
              2
            ],
            "bo": "SINGLE"
          }
        ]
      },
      "vertexId": 9782722,
      "buildingBlockId": 66,
      "buildingBlockType": "FRAGMENT",
      "isRCV": false,
      "properties": {
        "ATTACHMENT_POINTS": "1#bridge:0:SINGLE:-1.0417%-0.7693%0.0732,bridge:0:SINGLE:1.2664%-0.0002%0.2522 ",
        "OLDVERTEXID": 174563
      },
      "uniquefyingPropertyKeys": [],
      "allowedMutationTypes": [
        "DELETE",
        "EXTEND",
        "CHANGEBRANCH",
        "CHANGELINK",
        "ADDLINK",
        "DELETELINK",
        "DELETECHAIN"
      ],
      "vertexType": "MolecularFragment"
    },
    {
      "lstAPs": [
        {
          "id": 16373708,
          "atomPositionNumber": 0,
          "atomPositionNumberInMol": -1,
          "apClass": {
            "rule": "bridge",
            "subClass": 0,
            "bndTyp": "SINGLE"
          },
          "dirVec": {
            "x": -1.0417,
            "y": -0.7693,
            "z": 0.07320000000000002
          }
        },
        {
          "id": 16373709,
          "atomPositionNumber": 0,
          "atomPositionNumberInMol": -1,
          "apClass": {
            "rule": "bridge",
            "subClass": 0,
            "bndTyp": "SINGLE"
          },
          "dirVec": {
            "x": 1.2664,
            "y": -1.9999999999997797E-4,
            "z": 0.2522
          }
        }
      ],
      "lstSymAPs": [
        {
          "symIds": [
            0,
            1
          ]
        }
      ],
      "mol": {
        "atoms": [
          {
            "elSymbol": "C",
            "p3d": {
              "x": 0.4112,
              "y": -1.2101,
              "z": -0.1993
            }
          },
          {
            "elSymbol": "H",
            "p3d": {
              "x": 0.6587,
              "y": -2.0933,
              "z": 0.3897
            }
          },
          {
            "elSymbol": "H",
            "p3d": {
              "x": 0.5577,
              "y": -1.4056,
              "z": -1.2616
            }
          }
        ],
        "bonds": [
          {
            "atomIds": [
              0,
              1
            ],
            "bo": "SINGLE"
          },
          {
            "atomIds": [
              0,
              2
            ],
            "bo": "SINGLE"
          }
        ]
      },
      "vertexId": 9782723,
      "buildingBlockId": 66,
      "buildingBlockType": "FRAGMENT",
      "isRCV": false,
      "properties": {
        "ATTACHMENT_POINTS": "1#bridge:0:SINGLE:-1.0417%-0.7693%0.0732,bridge:0:SINGLE:1.2664%-0.0002%0.2522 ",
        "OLDVERTEXID": 174677
      },
      "uniquefyingPropertyKeys": [],
      "allowedMutationTypes": [
        "DELETE",
        "EXTEND",
        "CHANGEBRANCH",
        "CHANGELINK",
        "ADDLINK",
        "DELETELINK",
        "DELETECHAIN"
      ],
      "vertexType": "MolecularFragment"
    },
    {
      "lstAPs": [
        {
          "id": 16373710,
          "atomPositionNumber": 0,
          "atomPositionNumberInMol": -1,
          "apClass": {
            "rule": "ATminus",
            "subClass": 0,
            "bndTyp": "ANY"
          },
          "dirVec": {
            "x": 0.0109,
            "y": -0.0071,
            "z": 0.0026
          }
        }
      ],
      "lstSymAPs": [],
      "mol": {
        "atoms": [
          {
            "elSymbol": "ATM",
            "p3d": {
              "x": -0.0096,
              "y": 0.0045,
              "z": -0.0011
            }
          }
        ],
        "bonds": []
      },
      "vertexId": 9782724,
      "buildingBlockId": 79,
      "buildingBlockType": "FRAGMENT",
      "isRCV": true,
      "properties": {
        "ATTACHMENT_POINTS": "1#ATminus:0:ANY:0.0109%-0.0071%0.0026 ",
        "OLDVERTEXID": 9782584
      },
      "uniquefyingPropertyKeys": [],
      "allowedMutationTypes": [
        "DELETE",
        "EXTEND",
        "CHANGEBRANCH",
        "CHANGELINK",
        "ADDLINK",
        "DELETELINK",
        "DELETECHAIN"
      ],
      "vertexType": "MolecularFragment"
    },
    {
      "lstAPs": [
        {
          "id": 16373711,
          "atomPositionNumber": 0,
          "atomPositionNumberInMol": -1,
          "apClass": {
            "rule": "ATminus",
            "subClass": 0,
            "bndTyp": "ANY"
          },
          "dirVec": {
            "x": 0.0109,
            "y": -0.0071,
            "z": 0.0026
          }
        }
      ],
      "lstSymAPs": [],
      "mol": {
        "atoms": [
          {
            "elSymbol": "ATM",
            "p3d": {
              "x": -0.0096,
              "y": 0.0045,
              "z": -0.0011
            }
          }
        ],
        "bonds": []
      },
      "vertexId": 9782725,
      "buildingBlockId": 79,
      "buildingBlockType": "FRAGMENT",
      "isRCV": true,
      "properties": {
        "ATTACHMENT_POINTS": "1#ATminus:0:ANY:0.0109%-0.0071%0.0026 ",
        "OLDVERTEXID": 9782598
      },
      "uniquefyingPropertyKeys": [],
      "allowedMutationTypes": [
        "DELETE",
        "EXTEND",
        "CHANGEBRANCH",
        "CHANGELINK",
        "ADDLINK",
        "DELETELINK",
        "DELETECHAIN"
      ],
      "vertexType": "MolecularFragment"
    }
  ],
  "gEdges": [
    {
      "srcAPID": 16373692,
      "trgAPID": 16373694,
      "bondType": "SINGLE"
    },
    {
      "srcAPID": 16373695,
      "trgAPID": 16373698,
      "bondType": "SINGLE"
    },
    {
      "srcAPID": 16373693,
      "trgAPID": 16373699,
      "bondType": "SINGLE"
    },
    {
      "srcAPID": 16373690,
      "trgAPID": 16373700,
      "bondType": "SINGLE"
    },
    {
      "srcAPID": 16373697,
      "trgAPID": 16373702,
      "bondType": "SINGLE"
    },
    {
      "srcAPID": 16373696,
      "trgAPID": 16373703,
      "bondType": "SINGLE"
    },
    {
      "srcAPID": 16373691,
      "trgAPID": 16373704,
      "bondType": "SINGLE"
    },
    {
      "srcAPID": 16373701,
      "trgAPID": 16373706,
      "bondType": "SINGLE"
    },
    {
      "srcAPID": 16373705,
      "trgAPID": 16373708,
      "bondType": "SINGLE"
    },
    {
      "srcAPID": 16373707,
      "trgAPID": 16373710,
      "bondType": "SINGLE"
    },
    {
      "srcAPID": 16373709,
      "trgAPID": 16373711,
      "bondType": "SINGLE"
    }
  ],
  "gRings": [
    {
      "vertices": [
        9782717,
        9782715,
        9782714,
        9782718,
        9782722,
        9782724
      ],
      "bndTyp": "SINGLE"
    },
    {
      "vertices": [
        9782716,
        9782715,
        9782714,
        9782721,
        9782723,
        9782725
      ],
      "bndTyp": "SINGLE"
    }
  ],
  "symVertices": [
    {
      "symIds": [
        9782716,
        9782717
      ]
    },
    {
      "symIds": [
        9782718,
        9782721
      ]
    },
    {
      "symIds": [
        9782719,
        9782720
      ]
    },
    {
      "symIds": [
        9782722,
        9782723
      ]
    },
    {
      "symIds": [
        9782724,
        9782725
      ]
    }
  ]
}

> <SMILES>
[Pt]12(C#O)[C]3N(C(C(N3C([H])([H])C(=O)O1)([H])C([H])([H])[H])([H])C([H])([H])[H])C([H])([H])C(=O)O2

$$$$
