M30087687
  CDK     05082206433D

 44 44  0  0  0  0  0  0  0  0999 V2000
   -0.0079   -0.0052    1.0177 Pt  0  0  0  0  0  0  0  0  0  0  0  0
   -0.0218   -0.0151    2.9302 C   0  0  0  0  0  0  0  0  0  0  0  0
   -0.0306   -0.0210    4.0761 O   0  0  0  0  0  0  0  0  0  0  0  0
    0.0055    0.0057   -0.9985 C   0  0  2  0  0  0  0  0  0  0  0  0
    1.1246    0.0186   -1.8095 N   0  0  0  0  0  0  0  0  0  0  0  0
    0.7152    0.0219   -3.1605 C   0  0  0  0  0  0  0  0  0  0  0  0
   -0.6779    0.0149   -3.1692 C   0  0  0  0  0  0  0  0  0  0  0  0
   -1.1038    0.0031   -1.8234 N   0  0  0  0  0  0  0  0  0  0  0  0
   -1.7429    0.0168   -4.4620 Cl  0  0  0  0  0  0  0  0  0  0  0  0
    1.7974    0.0354   -4.4388 Cl  0  0  0  0  0  0  0  0  0  0  0  0
    2.5069    0.0286   -1.3182 C   0  0  0  0  0  0  0  0  0  0  0  0
    2.9085   -0.9992   -1.2499 H   0  0  0  0  0  0  0  0  0  0  0  0
    2.5354    0.4854   -0.2912 H   0  0  0  0  0  0  0  0  0  0  0  0
    3.1619    0.6347   -1.9678 H   0  0  0  0  0  0  0  0  0  0  0  0
   -2.4911   -0.0103   -1.3465 C   0  0  0  0  0  0  0  0  0  0  0  0
   -2.8736    1.0198   -1.2203 H   0  0  0  0  0  0  0  0  0  0  0  0
   -2.5384   -0.5241   -0.3473 H   0  0  0  0  0  0  0  0  0  0  0  0
   -3.1517   -0.5631   -2.0364 H   0  0  0  0  0  0  0  0  0  0  0  0
   -0.3026    2.0496    1.0377 O   0  0  0  0  0  0  0  0  0  0  0  0
    1.8823    2.1760    0.7097 O   0  0  0  0  0  0  0  0  0  0  0  0
    0.8145    2.7596    0.8756 C   0  0  0  0  0  0  0  0  0  0  0  0
    1.6248    6.5388    0.8235 C   0  0  0  0  0  0  0  0  0  0  0  0
    1.8794    5.0361    0.7935 C   0  0  0  0  0  0  0  0  0  0  0  0
    0.5742    4.2427    0.9201 C   0  0  0  0  0  0  0  0  0  0  0  0
    2.5647    7.0976    0.7371 H   0  0  0  0  0  0  0  0  0  0  0  0
    1.1455    6.8525    1.7584 H   0  0  0  0  0  0  0  0  0  0  0  0
    2.3997    4.7521   -0.1442 H   0  0  0  0  0  0  0  0  0  0  0  0
    2.5723    4.7468    1.6107 H   0  0  0  0  0  0  0  0  0  0  0  0
    0.0451    4.4989    1.8643 H   0  0  0  0  0  0  0  0  0  0  0  0
   -0.1390    4.5205    0.1139 H   0  0  0  0  0  0  0  0  0  0  0  0
    0.9781    6.8603   -0.0010 H   0  0  0  0  0  0  0  0  0  0  0  0
    0.2881   -2.0599    1.0191 O   0  0  0  0  0  0  0  0  0  0  0  0
   -1.8953   -2.1875    0.6805 O   0  0  0  0  0  0  0  0  0  0  0  0
   -0.8270   -2.7704    0.8463 C   0  0  0  0  0  0  0  0  0  0  0  0
   -1.6314   -6.5506    0.7723 C   0  0  0  0  0  0  0  0  0  0  0  0
   -1.8861   -5.0481    0.7322 C   0  0  0  0  0  0  0  0  0  0  0  0
   -0.5844   -4.2534    0.8824 C   0  0  0  0  0  0  0  0  0  0  0  0
   -0.9701   -6.8746   -0.0395 H   0  0  0  0  0  0  0  0  0  0  0  0
   -2.5694   -7.1103    0.6715 H   0  0  0  0  0  0  0  0  0  0  0  0
   -2.3879   -4.7675   -0.2164 H   0  0  0  0  0  0  0  0  0  0  0  0
   -2.5952   -4.7567    1.5347 H   0  0  0  0  0  0  0  0  0  0  0  0
   -0.0681   -4.5153    1.8321 H   0  0  0  0  0  0  0  0  0  0  0  0
    0.1407   -4.5239    0.0846 H   0  0  0  0  0  0  0  0  0  0  0  0
   -1.1689   -6.8606    1.7168 H   0  0  0  0  0  0  0  0  0  0  0  0
  2  3  3  0  0  0  0
  1  2  1  0  0  0  0
  5  4  1  0  0  0  0
  6  5  1  0  0  0  0
  7  6  2  0  0  0  0
  7  8  1  0  0  0  0
  8  4  1  0  0  0  0
  1  4  1  0  0  0  0
  7  9  1  0  0  0  0
  6 10  1  0  0  0  0
 12 11  1  0  0  0  0
 13 11  1  0  0  0  0
 14 11  1  0  0  0  0
  5 11  1  0  0  0  0
 16 15  1  0  0  0  0
 17 15  1  0  0  0  0
 18 15  1  0  0  0  0
  8 15  1  0  0  0  0
 20 21  2  0  0  0  0
 21 19  1  0  0  0  0
  1 19  1  0  0  0  0
 22 23  1  0  0  0  0
 23 24  1  0  0  0  0
 22 25  1  0  0  0  0
 22 26  1  0  0  0  0
 23 27  1  0  0  0  0
 23 28  1  0  0  0  0
 24 29  1  0  0  0  0
 24 30  1  0  0  0  0
 21 24  1  0  0  0  0
 22 31  1  0  0  0  0
 33 34  2  0  0  0  0
 34 32  1  0  0  0  0
  1 32  1  0  0  0  0
 35 36  1  0  0  0  0
 36 37  1  0  0  0  0
 35 38  1  0  0  0  0
 35 39  1  0  0  0  0
 36 40  1  0  0  0  0
 36 41  1  0  0  0  0
 37 42  1  0  0  0  0
 37 43  1  0  0  0  0
 34 37  1  0  0  0  0
 35 44  1  0  0  0  0
M  END
> <PM6_ENERGY>
-820.925

> <UID>
VIVFPOHCYQFALH-NZMIZPBZNA-L

> <FITNESS>
1.14595

> <GCODE>
194131

> <GraphENC>
194131 153_1_0,154_63_1,155_79_1,156_79_1,9946_76_1,9739_76_1,9947_14_1,9745_14_1,203185_65_1,203233_65_1,10751003_80_1,10750993_80_1, 153_2_154_0_SINGLE_scaff:0_MImidazolylidene:1,154_1_155_0_SINGLE_LImidazolylideneSubNL:0_ATplus:0,154_4_156_0_SINGLE_LImidazolylideneSubNL:0_ATplus:0,153_1_9946_0_SINGLE_Xlig:0_Xlig:1,153_0_9739_0_SINGLE_Xlig:0_Xlig:1,154_3_9947_0_SINGLE_LImidazolylideneSubCS:0_LImidazolylideneSubCS:1,154_2_9745_0_SINGLE_LImidazolylideneSubCS:0_LImidazolylideneSubCS:1,9946_1_203185_1_SINGLE_bridge:1_bridge:0,9739_1_203233_1_SINGLE_bridge:1_bridge:0,203233_0_10751003_0_SINGLE_bridge:0_ATminus:0,203185_0_10750993_0_SINGLE_bridge:0_ATminus:0, SymmetricSet [symIds=[155, 156]] SymmetricSet [symIds=[9946, 9739]] SymmetricSet [symIds=[9947, 9745]] SymmetricSet [symIds=[203185, 203233]] SymmetricSet [symIds=[10751003, 10750993]] 

> <GraphJson>
{
  "graphId": 194131,
  "gVertices": [
    {
      "lstAPs": [
        {
          "id": 18000212,
          "atomPositionNumber": 0,
          "atomPositionNumberInMol": 0,
          "apClass": {
            "rule": "Xlig",
            "subClass": 0,
            "bndTyp": "SINGLE"
          },
          "dirVec": {
            "x": -2.3339,
            "y": -0.0087,
            "z": 0.8172
          }
        },
        {
          "id": 18000213,
          "atomPositionNumber": 0,
          "atomPositionNumberInMol": 0,
          "apClass": {
            "rule": "Xlig",
            "subClass": 0,
            "bndTyp": "SINGLE"
          },
          "dirVec": {
            "x": 2.336,
            "y": -5.0E-4,
            "z": 0.829
          }
        },
        {
          "id": 18000214,
          "atomPositionNumber": 0,
          "atomPositionNumberInMol": 0,
          "apClass": {
            "rule": "scaff",
            "subClass": 0,
            "bndTyp": "SINGLE"
          },
          "dirVec": {
            "x": -0.0095,
            "y": 0.0046,
            "z": -1.7113
          }
        }
      ],
      "lstSymAPs": [
        {
          "symIds": [
            0,
            1
          ]
        }
      ],
      "mol": {
        "atoms": [
          {
            "elSymbol": "Pt",
            "p3d": {
              "x": -0.0098,
              "y": 0.0049,
              "z": 0.6289
            }
          },
          {
            "elSymbol": "C",
            "p3d": {
              "x": -6.0E-4,
              "y": 0.0016,
              "z": 2.5609
            }
          },
          {
            "elSymbol": "O",
            "p3d": {
              "x": 0.0025,
              "y": -0.0041,
              "z": 3.6974
            }
          },
          {
            "elSymbol": "Du",
            "p3d": {
              "x": -0.007,
              "y": 1.0013,
              "z": 0.6372
            }
          },
          {
            "elSymbol": "Du",
            "p3d": {
              "x": -0.0014,
              "y": 0.9902,
              "z": 2.5698
            }
          }
        ],
        "bonds": [
          {
            "atomIds": [
              1,
              2
            ],
            "bo": "TRIPLE"
          },
          {
            "atomIds": [
              0,
              1
            ],
            "bo": "SINGLE"
          },
          {
            "atomIds": [
              3,
              0
            ],
            "bo": "SINGLE"
          },
          {
            "atomIds": [
              4,
              1
            ],
            "bo": "SINGLE"
          }
        ]
      },
      "vertexId": 153,
      "buildingBlockId": 0,
      "buildingBlockType": "SCAFFOLD",
      "isRCV": false,
      "properties": {
        "ATTACHMENT_POINTS": "1#Xlig:0:SINGLE:-2.3339%-0.0087%0.8172,Xlig:0:SINGLE:2.3360%-0.0005%0.8290,scaff:0:SINGLE:-0.0095%0.0046%-1.7113 "
      },
      "uniquefyingPropertyKeys": [],
      "allowedMutationTypes": [
        "DELETE",
        "EXTEND",
        "CHANGEBRANCH",
        "CHANGELINK",
        "ADDLINK",
        "DELETELINK",
        "DELETECHAIN"
      ],
      "vertexType": "MolecularFragment"
    },
    {
      "lstAPs": [
        {
          "id": 18000215,
          "atomPositionNumber": 0,
          "atomPositionNumberInMol": 5,
          "apClass": {
            "rule": "MImidazolylidene",
            "subClass": 1,
            "bndTyp": "SINGLE"
          },
          "dirVec": {
            "x": -0.009793238118654938,
            "y": 0.004893238118654934,
            "z": 0.5761528175852433
          }
        },
        {
          "id": 18000216,
          "atomPositionNumber": 1,
          "atomPositionNumberInMol": 6,
          "apClass": {
            "rule": "LImidazolylideneSubNL",
            "subClass": 0,
            "bndTyp": "SINGLE"
          },
          "dirVec": {
            "x": 2.1385376400018083,
            "y": -1.2920820938118114,
            "z": -2.0126980407065247
          }
        },
        {
          "id": 18000217,
          "atomPositionNumber": 2,
          "atomPositionNumberInMol": 7,
          "apClass": {
            "rule": "LImidazolylideneSubCS",
            "subClass": 0,
            "bndTyp": "SINGLE"
          },
          "dirVec": {
            "x": 1.3448401215438701,
            "y": -0.9033181604791201,
            "z": -5.017679279139372
          }
        },
        {
          "id": 18000218,
          "atomPositionNumber": 3,
          "atomPositionNumberInMol": 8,
          "apClass": {
            "rule": "LImidazolylideneSubCS",
            "subClass": 0,
            "bndTyp": "SINGLE"
          },
          "dirVec": {
            "x": -1.3477185878361413,
            "y": 0.8507747291978388,
            "z": -5.018441464543981
          }
        },
        {
          "id": 18000219,
          "atomPositionNumber": 4,
          "atomPositionNumberInMol": 9,
          "apClass": {
            "rule": "LImidazolylideneSubNL",
            "subClass": 0,
            "bndTyp": "SINGLE"
          },
          "dirVec": {
            "x": -2.1480918912368194,
            "y": 1.2671530428764126,
            "z": -2.019672067757746
          }
        }
      ],
      "lstSymAPs": [
        {
          "symIds": [
            1,
            4
          ]
        },
        {
          "symIds": [
            2,
            3
          ]
        }
      ],
      "mol": {
        "atoms": [
          {
            "elSymbol": "C",
            "p3d": {
              "x": -0.009506761881345062,
              "y": 0.0046067618813450655,
              "z": -1.6585528175852433
            }
          },
          {
            "elSymbol": "N",
            "p3d": {
              "x": 0.9210219066924671,
              "y": -0.5768763137558393,
              "z": -2.4913283273775098
            }
          },
          {
            "elSymbol": "C",
            "p3d": {
              "x": 0.5808767650721197,
              "y": -0.37444584415157073,
              "z": -3.8247559735615355
            }
          },
          {
            "elSymbol": "C",
            "p3d": {
              "x": -0.5846862974820531,
              "y": 0.3294560187596806,
              "z": -3.824482844647925
            }
          },
          {
            "elSymbol": "N",
            "p3d": {
              "x": -0.9434229167071055,
              "y": 0.5572297196054272,
              "z": -2.48469390260145
            }
          }
        ],
        "bonds": [
          {
            "atomIds": [
              1,
              0
            ],
            "bo": "SINGLE"
          },
          {
            "atomIds": [
              2,
              1
            ],
            "bo": "SINGLE"
          },
          {
            "atomIds": [
              3,
              2
            ],
            "bo": "DOUBLE"
          },
          {
            "atomIds": [
              3,
              4
            ],
            "bo": "SINGLE"
          },
          {
            "atomIds": [
              4,
              0
            ],
            "bo": "SINGLE"
          }
        ]
      },
      "vertexId": 154,
      "buildingBlockId": 62,
      "buildingBlockType": "FRAGMENT",
      "isRCV": false,
      "properties": {
        "ATTACHMENT_POINTS": "1#MImidazolylidene:1:SINGLE:-0.0098%0.0049%0.5762 2#LImidazolylideneSubNL:0:SINGLE:2.1385%-1.2921%-2.0127 3#LImidazolylideneSubCS:0:SINGLE:1.3448%-0.9033%-5.0177 4#LImidazolylideneSubCS:0:SINGLE:-1.3477%0.8508%-5.0184 5#LImidazolylideneSubNL:0:SINGLE:-2.1481%1.2672%-2.0197 "
      },
      "uniquefyingPropertyKeys": [],
      "allowedMutationTypes": [
        "DELETE",
        "EXTEND",
        "CHANGEBRANCH",
        "CHANGELINK",
        "ADDLINK",
        "DELETELINK",
        "DELETECHAIN"
      ],
      "vertexType": "MolecularFragment"
    },
    {
      "lstAPs": [
        {
          "id": 18000220,
          "atomPositionNumber": 0,
          "atomPositionNumberInMol": 10,
          "apClass": {
            "rule": "ATplus",
            "subClass": 0,
            "bndTyp": "ANY"
          },
          "dirVec": {
            "x": 2.1385376400018083,
            "y": -1.2920820938118114,
            "z": -2.0126980407065247
          }
        }
      ],
      "lstSymAPs": [],
      "mol": {
        "atoms": [
          {
            "elSymbol": "ATP",
            "p3d": {
              "x": 2.155679833678634,
              "y": -1.3021519398639685,
              "z": -2.0059590944660464
            }
          }
        ],
        "bonds": []
      },
      "vertexId": 155,
      "buildingBlockId": 78,
      "buildingBlockType": "FRAGMENT",
      "isRCV": true,
      "properties": {
        "ATTACHMENT_POINTS": "1#ATplus:0:ANY:2.1385%-1.2921%-2.0127 "
      },
      "uniquefyingPropertyKeys": [],
      "allowedMutationTypes": [
        "DELETE",
        "EXTEND",
        "CHANGEBRANCH",
        "CHANGELINK",
        "ADDLINK",
        "DELETELINK",
        "DELETECHAIN"
      ],
      "vertexType": "MolecularFragment"
    },
    {
      "lstAPs": [
        {
          "id": 18000221,
          "atomPositionNumber": 0,
          "atomPositionNumberInMol": 11,
          "apClass": {
            "rule": "ATplus",
            "subClass": 0,
            "bndTyp": "ANY"
          },
          "dirVec": {
            "x": -2.1480918912368194,
            "y": 1.2671530428764126,
            "z": -2.019672067757746
          }
        }
      ],
      "lstSymAPs": [],
      "mol": {
        "atoms": [
          {
            "elSymbol": "ATP",
            "p3d": {
              "x": -2.1652531118529774,
              "y": 1.2772663196593277,
              "z": -2.0130475572342648
            }
          }
        ],
        "bonds": []
      },
      "vertexId": 156,
      "buildingBlockId": 78,
      "buildingBlockType": "FRAGMENT",
      "isRCV": true,
      "properties": {
        "ATTACHMENT_POINTS": "1#ATplus:0:ANY:-2.1481%1.2672%-2.0197 "
      },
      "uniquefyingPropertyKeys": [],
      "allowedMutationTypes": [
        "DELETE",
        "EXTEND",
        "CHANGEBRANCH",
        "CHANGELINK",
        "ADDLINK",
        "DELETELINK",
        "DELETECHAIN"
      ],
      "vertexType": "MolecularFragment"
    },
    {
      "lstAPs": [
        {
          "id": 18000222,
          "atomPositionNumber": 0,
          "atomPositionNumberInMol": 14,
          "apClass": {
            "rule": "Xlig",
            "subClass": 1,
            "bndTyp": "SINGLE"
          },
          "dirVec": {
            "x": 2.9612,
            "y": 0.482,
            "z": 3.1597
          }
        },
        {
          "id": 18000223,
          "atomPositionNumber": 2,
          "atomPositionNumberInMol": 16,
          "apClass": {
            "rule": "bridge",
            "subClass": 1,
            "bndTyp": "SINGLE"
          },
          "dirVec": {
            "x": 0.31479999999999997,
            "y": 0.7222,
            "z": 2.0817
          }
        }
      ],
      "lstSymAPs": [],
      "mol": {
        "atoms": [
          {
            "elSymbol": "O",
            "p3d": {
              "x": 2.5349,
              "y": 1.3185,
              "z": 1.3621
            }
          },
          {
            "elSymbol": "O",
            "p3d": {
              "x": 0.8537,
              "y": 1.7439,
              "z": 0.0154
            }
          },
          {
            "elSymbol": "C",
            "p3d": {
              "x": 1.2704,
              "y": 1.2787,
              "z": 1.0674
            }
          }
        ],
        "bonds": [
          {
            "atomIds": [
              1,
              2
            ],
            "bo": "DOUBLE"
          },
          {
            "atomIds": [
              2,
              0
            ],
            "bo": "SINGLE"
          }
        ]
      },
      "vertexId": 9946,
      "buildingBlockId": 75,
      "buildingBlockType": "FRAGMENT",
      "isRCV": false,
      "properties": {
        "ATTACHMENT_POINTS": "1#Xlig:1:SINGLE:2.9612%0.4820%3.1597 3#bridge:1:SINGLE:0.3148%0.7222%2.0817 "
      },
      "uniquefyingPropertyKeys": [],
      "allowedMutationTypes": [
        "DELETE",
        "EXTEND",
        "CHANGEBRANCH",
        "CHANGELINK",
        "ADDLINK",
        "DELETELINK",
        "DELETECHAIN"
      ],
      "vertexType": "MolecularFragment"
    },
    {
      "lstAPs": [
        {
          "id": 18000224,
          "atomPositionNumber": 0,
          "atomPositionNumberInMol": 27,
          "apClass": {
            "rule": "Xlig",
            "subClass": 1,
            "bndTyp": "SINGLE"
          },
          "dirVec": {
            "x": 2.9612,
            "y": 0.482,
            "z": 3.1597
          }
        },
        {
          "id": 18000225,
          "atomPositionNumber": 2,
          "atomPositionNumberInMol": 29,
          "apClass": {
            "rule": "bridge",
            "subClass": 1,
            "bndTyp": "SINGLE"
          },
          "dirVec": {
            "x": 0.31479999999999997,
            "y": 0.7222,
            "z": 2.0817
          }
        }
      ],
      "lstSymAPs": [],
      "mol": {
        "atoms": [
          {
            "elSymbol": "O",
            "p3d": {
              "x": 2.5349,
              "y": 1.3185,
              "z": 1.3621
            }
          },
          {
            "elSymbol": "O",
            "p3d": {
              "x": 0.8537,
              "y": 1.7439,
              "z": 0.0154
            }
          },
          {
            "elSymbol": "C",
            "p3d": {
              "x": 1.2704,
              "y": 1.2787,
              "z": 1.0674
            }
          }
        ],
        "bonds": [
          {
            "atomIds": [
              1,
              2
            ],
            "bo": "DOUBLE"
          },
          {
            "atomIds": [
              2,
              0
            ],
            "bo": "SINGLE"
          }
        ]
      },
      "vertexId": 9739,
      "buildingBlockId": 75,
      "buildingBlockType": "FRAGMENT",
      "isRCV": false,
      "properties": {
        "ATTACHMENT_POINTS": "1#Xlig:1:SINGLE:2.9612%0.4820%3.1597 3#bridge:1:SINGLE:0.3148%0.7222%2.0817 "
      },
      "uniquefyingPropertyKeys": [],
      "allowedMutationTypes": [
        "DELETE",
        "EXTEND",
        "CHANGEBRANCH",
        "CHANGELINK",
        "ADDLINK",
        "DELETELINK",
        "DELETECHAIN"
      ],
      "vertexType": "MolecularFragment"
    },
    {
      "lstAPs": [
        {
          "id": 18000226,
          "atomPositionNumber": 0,
          "atomPositionNumberInMol": 12,
          "apClass": {
            "rule": "LImidazolylideneSubCS",
            "subClass": 1,
            "bndTyp": "SINGLE"
          },
          "dirVec": {
            "x": 5.5071,
            "y": 2.2827,
            "z": 3.7546
          }
        }
      ],
      "lstSymAPs": [],
      "mol": {
        "atoms": [
          {
            "elSymbol": "Cl",
            "p3d": {
              "x": 6.5936,
              "y": 1.2536,
              "z": 4.5047
            }
          }
        ],
        "bonds": []
      },
      "vertexId": 9947,
      "buildingBlockId": 13,
      "buildingBlockType": "FRAGMENT",
      "isRCV": false,
      "properties": {
        "ATTACHMENT_POINTS": "1#LImidazolylideneSubCS:1:SINGLE:5.5071%2.2827%3.7546 "
      },
      "uniquefyingPropertyKeys": [],
      "allowedMutationTypes": [
        "DELETE",
        "EXTEND",
        "CHANGEBRANCH",
        "CHANGELINK",
        "ADDLINK",
        "DELETELINK",
        "DELETECHAIN"
      ],
      "vertexType": "MolecularFragment"
    },
    {
      "lstAPs": [
        {
          "id": 18000227,
          "atomPositionNumber": 0,
          "atomPositionNumberInMol": 13,
          "apClass": {
            "rule": "LImidazolylideneSubCS",
            "subClass": 1,
            "bndTyp": "SINGLE"
          },
          "dirVec": {
            "x": 5.5071,
            "y": 2.2827,
            "z": 3.7546
          }
        }
      ],
      "lstSymAPs": [],
      "mol": {
        "atoms": [
          {
            "elSymbol": "Cl",
            "p3d": {
              "x": 6.5936,
              "y": 1.2536,
              "z": 4.5047
            }
          }
        ],
        "bonds": []
      },
      "vertexId": 9745,
      "buildingBlockId": 13,
      "buildingBlockType": "FRAGMENT",
      "isRCV": false,
      "properties": {
        "ATTACHMENT_POINTS": "1#LImidazolylideneSubCS:1:SINGLE:5.5071%2.2827%3.7546 "
      },
      "uniquefyingPropertyKeys": [],
      "allowedMutationTypes": [
        "DELETE",
        "EXTEND",
        "CHANGEBRANCH",
        "CHANGELINK",
        "ADDLINK",
        "DELETELINK",
        "DELETECHAIN"
      ],
      "vertexType": "MolecularFragment"
    },
    {
      "lstAPs": [
        {
          "id": 18000228,
          "atomPositionNumber": 0,
          "atomPositionNumberInMol": 17,
          "apClass": {
            "rule": "bridge",
            "subClass": 0,
            "bndTyp": "SINGLE"
          },
          "dirVec": {
            "x": -1.2321,
            "y": -0.7501,
            "z": -0.255
          }
        },
        {
          "id": 18000229,
          "atomPositionNumber": 2,
          "atomPositionNumberInMol": 19,
          "apClass": {
            "rule": "bridge",
            "subClass": 0,
            "bndTyp": "SINGLE"
          },
          "dirVec": {
            "x": 1.2657,
            "y": -0.692,
            "z": -0.255
          }
        }
      ],
      "lstSymAPs": [
        {
          "symIds": [
            0,
            1
          ]
        }
      ],
      "mol": {
        "atoms": [
          {
            "elSymbol": "C",
            "p3d": {
              "x": -1.2657,
              "y": 0.692,
              "z": 0.255
            }
          },
          {
            "elSymbol": "C",
            "p3d": {
              "x": -0.0335,
              "y": 1.4421,
              "z": -0.255
            }
          },
          {
            "elSymbol": "C",
            "p3d": {
              "x": 1.2321,
              "y": 0.7501,
              "z": 0.255
            }
          },
          {
            "elSymbol": "H",
            "p3d": {
              "x": -2.1673,
              "y": 1.1851,
              "z": -0.1083
            }
          },
          {
            "elSymbol": "H",
            "p3d": {
              "x": -1.2657,
              "y": 0.692,
              "z": 1.345
            }
          },
          {
            "elSymbol": "H",
            "p3d": {
              "x": -0.0335,
              "y": 1.4421,
              "z": -1.345
            }
          },
          {
            "elSymbol": "H",
            "p3d": {
              "x": -0.0574,
              "y": 2.4695,
              "z": 0.1083
            }
          },
          {
            "elSymbol": "H",
            "p3d": {
              "x": 2.11,
              "y": 1.2844,
              "z": -0.1083
            }
          },
          {
            "elSymbol": "H",
            "p3d": {
              "x": 1.2321,
              "y": 0.7501,
              "z": 1.345
            }
          }
        ],
        "bonds": [
          {
            "atomIds": [
              0,
              1
            ],
            "bo": "SINGLE"
          },
          {
            "atomIds": [
              1,
              2
            ],
            "bo": "SINGLE"
          },
          {
            "atomIds": [
              0,
              3
            ],
            "bo": "SINGLE"
          },
          {
            "atomIds": [
              0,
              4
            ],
            "bo": "SINGLE"
          },
          {
            "atomIds": [
              1,
              5
            ],
            "bo": "SINGLE"
          },
          {
            "atomIds": [
              1,
              6
            ],
            "bo": "SINGLE"
          },
          {
            "atomIds": [
              2,
              7
            ],
            "bo": "SINGLE"
          },
          {
            "atomIds": [
              2,
              8
            ],
            "bo": "SINGLE"
          }
        ]
      },
      "vertexId": 203185,
      "buildingBlockId": 64,
      "buildingBlockType": "FRAGMENT",
      "isRCV": false,
      "properties": {
        "ATTACHMENT_POINTS": "1#bridge:0:SINGLE:-1.2321%-0.7501%-0.2550 3#bridge:0:SINGLE:1.2657%-0.6920%-0.2550 "
      },
      "uniquefyingPropertyKeys": [],
      "allowedMutationTypes": [
        "DELETE",
        "EXTEND",
        "CHANGEBRANCH",
        "CHANGELINK",
        "ADDLINK",
        "DELETELINK",
        "DELETECHAIN"
      ],
      "vertexType": "MolecularFragment"
    },
    {
      "lstAPs": [
        {
          "id": 18000230,
          "atomPositionNumber": 0,
          "atomPositionNumberInMol": 30,
          "apClass": {
            "rule": "bridge",
            "subClass": 0,
            "bndTyp": "SINGLE"
          },
          "dirVec": {
            "x": -1.2321,
            "y": -0.7501,
            "z": -0.255
          }
        },
        {
          "id": 18000231,
          "atomPositionNumber": 2,
          "atomPositionNumberInMol": 32,
          "apClass": {
            "rule": "bridge",
            "subClass": 0,
            "bndTyp": "SINGLE"
          },
          "dirVec": {
            "x": 1.2657,
            "y": -0.692,
            "z": -0.255
          }
        }
      ],
      "lstSymAPs": [
        {
          "symIds": [
            0,
            1
          ]
        }
      ],
      "mol": {
        "atoms": [
          {
            "elSymbol": "C",
            "p3d": {
              "x": -1.2657,
              "y": 0.692,
              "z": 0.255
            }
          },
          {
            "elSymbol": "C",
            "p3d": {
              "x": -0.0335,
              "y": 1.4421,
              "z": -0.255
            }
          },
          {
            "elSymbol": "C",
            "p3d": {
              "x": 1.2321,
              "y": 0.7501,
              "z": 0.255
            }
          },
          {
            "elSymbol": "H",
            "p3d": {
              "x": -2.1673,
              "y": 1.1851,
              "z": -0.1083
            }
          },
          {
            "elSymbol": "H",
            "p3d": {
              "x": -1.2657,
              "y": 0.692,
              "z": 1.345
            }
          },
          {
            "elSymbol": "H",
            "p3d": {
              "x": -0.0335,
              "y": 1.4421,
              "z": -1.345
            }
          },
          {
            "elSymbol": "H",
            "p3d": {
              "x": -0.0574,
              "y": 2.4695,
              "z": 0.1083
            }
          },
          {
            "elSymbol": "H",
            "p3d": {
              "x": 2.11,
              "y": 1.2844,
              "z": -0.1083
            }
          },
          {
            "elSymbol": "H",
            "p3d": {
              "x": 1.2321,
              "y": 0.7501,
              "z": 1.345
            }
          }
        ],
        "bonds": [
          {
            "atomIds": [
              0,
              1
            ],
            "bo": "SINGLE"
          },
          {
            "atomIds": [
              1,
              2
            ],
            "bo": "SINGLE"
          },
          {
            "atomIds": [
              0,
              3
            ],
            "bo": "SINGLE"
          },
          {
            "atomIds": [
              0,
              4
            ],
            "bo": "SINGLE"
          },
          {
            "atomIds": [
              1,
              5
            ],
            "bo": "SINGLE"
          },
          {
            "atomIds": [
              1,
              6
            ],
            "bo": "SINGLE"
          },
          {
            "atomIds": [
              2,
              7
            ],
            "bo": "SINGLE"
          },
          {
            "atomIds": [
              2,
              8
            ],
            "bo": "SINGLE"
          }
        ]
      },
      "vertexId": 203233,
      "buildingBlockId": 64,
      "buildingBlockType": "FRAGMENT",
      "isRCV": false,
      "properties": {
        "ATTACHMENT_POINTS": "1#bridge:0:SINGLE:-1.2321%-0.7501%-0.2550 3#bridge:0:SINGLE:1.2657%-0.6920%-0.2550 "
      },
      "uniquefyingPropertyKeys": [],
      "allowedMutationTypes": [
        "DELETE",
        "EXTEND",
        "CHANGEBRANCH",
        "CHANGELINK",
        "ADDLINK",
        "DELETELINK",
        "DELETECHAIN"
      ],
      "vertexType": "MolecularFragment"
    },
    {
      "lstAPs": [
        {
          "id": 18000256,
          "atomPositionNumber": 0,
          "atomPositionNumberInMol": 39,
          "apClass": {
            "rule": "ATminus",
            "subClass": 0,
            "bndTyp": "ANY"
          },
          "dirVec": {
            "x": 0.0109,
            "y": -0.0071,
            "z": 0.0026
          }
        }
      ],
      "lstSymAPs": [],
      "mol": {
        "atoms": [
          {
            "elSymbol": "ATM",
            "p3d": {
              "x": -0.0096,
              "y": 0.0045,
              "z": -0.0011
            }
          }
        ],
        "bonds": []
      },
      "vertexId": 10751003,
      "buildingBlockId": 79,
      "buildingBlockType": "FRAGMENT",
      "isRCV": true,
      "properties": {
        "ATTACHMENT_POINTS": "1#ATminus:0:ANY:0.0109%-0.0071%0.0026 "
      },
      "uniquefyingPropertyKeys": [],
      "allowedMutationTypes": [
        "DELETE",
        "EXTEND",
        "CHANGEBRANCH",
        "CHANGELINK",
        "ADDLINK",
        "DELETELINK",
        "DELETECHAIN"
      ],
      "vertexType": "MolecularFragment"
    },
    {
      "lstAPs": [
        {
          "id": 18000257,
          "atomPositionNumber": 0,
          "atomPositionNumberInMol": 26,
          "apClass": {
            "rule": "ATminus",
            "subClass": 0,
            "bndTyp": "ANY"
          },
          "dirVec": {
            "x": 0.0109,
            "y": -0.0071,
            "z": 0.0026
          }
        }
      ],
      "lstSymAPs": [],
      "mol": {
        "atoms": [
          {
            "elSymbol": "ATM",
            "p3d": {
              "x": -0.0096,
              "y": 0.0045,
              "z": -0.0011
            }
          }
        ],
        "bonds": []
      },
      "vertexId": 10750993,
      "buildingBlockId": 79,
      "buildingBlockType": "FRAGMENT",
      "isRCV": true,
      "properties": {
        "ATTACHMENT_POINTS": "1#ATminus:0:ANY:0.0109%-0.0071%0.0026 "
      },
      "uniquefyingPropertyKeys": [],
      "allowedMutationTypes": [
        "DELETE",
        "EXTEND",
        "CHANGEBRANCH",
        "CHANGELINK",
        "ADDLINK",
        "DELETELINK",
        "DELETECHAIN"
      ],
      "vertexType": "MolecularFragment"
    }
  ],
  "gEdges": [
    {
      "srcAPID": 18000214,
      "trgAPID": 18000215,
      "bondType": "SINGLE"
    },
    {
      "srcAPID": 18000216,
      "trgAPID": 18000220,
      "bondType": "SINGLE"
    },
    {
      "srcAPID": 18000219,
      "trgAPID": 18000221,
      "bondType": "SINGLE"
    },
    {
      "srcAPID": 18000213,
      "trgAPID": 18000222,
      "bondType": "SINGLE"
    },
    {
      "srcAPID": 18000212,
      "trgAPID": 18000224,
      "bondType": "SINGLE"
    },
    {
      "srcAPID": 18000218,
      "trgAPID": 18000226,
      "bondType": "SINGLE"
    },
    {
      "srcAPID": 18000217,
      "trgAPID": 18000227,
      "bondType": "SINGLE"
    },
    {
      "srcAPID": 18000223,
      "trgAPID": 18000229,
      "bondType": "SINGLE"
    },
    {
      "srcAPID": 18000225,
      "trgAPID": 18000231,
      "bondType": "SINGLE"
    },
    {
      "srcAPID": 18000230,
      "trgAPID": 18000256,
      "bondType": "SINGLE"
    },
    {
      "srcAPID": 18000228,
      "trgAPID": 18000257,
      "bondType": "SINGLE"
    }
  ],
  "gRings": [],
  "symVertices": [
    {
      "symIds": [
        155,
        156
      ]
    },
    {
      "symIds": [
        9946,
        9739
      ]
    },
    {
      "symIds": [
        9947,
        9745
      ]
    },
    {
      "symIds": [
        203185,
        203233
      ]
    },
    {
      "symIds": [
        10751003,
        10750993
      ]
    }
  ]
}

> <SMILES>
[Pt](C#O)([C]1N(C(=C(N1[H])Cl)Cl)[H])(OC(=O)C(C(C([H])([H])[H])([H])[H])([H])[H])OC(=O)C(C(C([H])([H])[H])([H])[H])([H])[H]

$$$$
