M30030064
  CDK     05082201063D

 59 61  0  0  0  0  0  0  0  0999 V2000
    0.9886   -0.0331    0.0798 Pt  0  0  0  0  0  0  0  0  0  0  0  0
    2.8813    0.1428    0.3023 C   0  0  0  0  0  0  0  0  0  0  0  0
    4.0150    0.2581    0.4415 O   0  0  0  0  0  0  0  0  0  0  0  0
   -1.7429   -0.8369    0.8166 N   0  0  0  0  0  0  0  0  0  0  0  0
   -1.6311    0.4997   -1.1422 N   0  0  0  0  0  0  0  0  0  0  0  0
   -1.0353   -0.1671   -0.1247 C   0  0  0  0  0  0  0  0  0  0  0  0
   -3.2299   -0.8461    0.8184 C   0  0  0  0  0  0  0  0  0  0  0  0
   -3.5992   -0.8870    1.8669 H   0  0  0  0  0  0  0  0  0  0  0  0
   -3.5870   -1.7640    0.2970 H   0  0  0  0  0  0  0  0  0  0  0  0
   -3.7451    0.4222    0.1206 C   0  0  0  0  0  0  0  0  0  0  0  0
   -3.4810    1.3180    0.7386 H   0  0  0  0  0  0  0  0  0  0  0  0
   -4.8460    0.4043    0.0463 H   0  0  0  0  0  0  0  0  0  0  0  0
   -3.1109    0.5650   -1.2717 C   0  0  0  0  0  0  0  0  0  0  0  0
   -3.4506   -0.2485   -1.9534 H   0  0  0  0  0  0  0  0  0  0  0  0
   -3.4024    1.5350   -1.7309 H   0  0  0  0  0  0  0  0  0  0  0  0
   -0.9968   -1.5574    1.8744 C   0  0  0  0  0  0  0  0  0  0  0  0
   -0.5381   -0.8298    2.5879 H   0  0  0  0  0  0  0  0  0  0  0  0
   -0.1725   -2.1579    1.4279 H   0  0  0  0  0  0  0  0  0  0  0  0
   -1.6538   -2.2374    2.4329 H   0  0  0  0  0  0  0  0  0  0  0  0
   -0.7671    1.1944   -2.1241 C   0  0  0  0  0  0  0  0  0  0  0  0
   -1.3505    1.5709   -2.9746 H   0  0  0  0  0  0  0  0  0  0  0  0
    0.0111    0.4951   -2.5245 H   0  0  0  0  0  0  0  0  0  0  0  0
   -0.2383    2.0432   -1.6409 H   0  0  0  0  0  0  0  0  0  0  0  0
    0.9465   -2.4456   -1.9017 S   0  0  0  0  0  0  0  0  0  0  0  0
    1.2628   -2.0268   -0.3625 O   0  0  0  0  0  0  0  0  0  0  0  0
    1.2036   -1.2069   -2.6428 O   0  0  0  0  0  0  0  0  0  0  0  0
   -0.3634   -3.0386   -1.9682 O   0  0  0  0  0  0  0  0  0  0  0  0
    2.2079   -3.6328   -2.1901 C   0  0  0  0  0  0  0  0  0  0  0  0
    2.2203   -4.0845   -3.6169 C   0  0  0  0  0  0  0  0  0  0  0  0
    2.4933   -3.1642   -4.6424 C   0  0  0  0  0  0  0  0  0  0  0  0
    2.5315   -3.5929   -5.9703 C   0  0  0  0  0  0  0  0  0  0  0  0
    2.2991   -4.9363   -6.2852 C   0  0  0  0  0  0  0  0  0  0  0  0
    2.0220   -5.8510   -5.2656 C   0  0  0  0  0  0  0  0  0  0  0  0
    1.9819   -5.4303   -3.9329 C   0  0  0  0  0  0  0  0  0  0  0  0
    3.2106   -3.2241   -1.9223 H   0  0  0  0  0  0  0  0  0  0  0  0
    2.0988   -4.4976   -1.4964 H   0  0  0  0  0  0  0  0  0  0  0  0
    2.6567   -2.1086   -4.4055 H   0  0  0  0  0  0  0  0  0  0  0  0
    2.7405   -2.8757   -6.7634 H   0  0  0  0  0  0  0  0  0  0  0  0
    2.3301   -5.2666   -7.3216 H   0  0  0  0  0  0  0  0  0  0  0  0
    1.8338   -6.8961   -5.5076 H   0  0  0  0  0  0  0  0  0  0  0  0
    1.7585   -6.1488   -3.1467 H   0  0  0  0  0  0  0  0  0  0  0  0
   -0.0533    2.2738    1.9158 S   0  0  0  0  0  0  0  0  0  0  0  0
    0.7754    1.9629    0.5531 O   0  0  0  0  0  0  0  0  0  0  0  0
    0.2737    1.1546    2.7980 O   0  0  0  0  0  0  0  0  0  0  0  0
   -1.4403    2.4974    1.5764 O   0  0  0  0  0  0  0  0  0  0  0  0
    0.7281    3.7559    2.4401 C   0  0  0  0  0  0  0  0  0  0  0  0
    0.2160    4.2047    3.7727 C   0  0  0  0  0  0  0  0  0  0  0  0
    0.4147    3.4012    4.9077 C   0  0  0  0  0  0  0  0  0  0  0  0
   -0.0394    3.8338    6.1547 C   0  0  0  0  0  0  0  0  0  0  0  0
   -0.6923    5.0651    6.2800 C   0  0  0  0  0  0  0  0  0  0  0  0
   -0.8948    5.8621    5.1501 C   0  0  0  0  0  0  0  0  0  0  0  0
   -0.4430    5.4367    3.8972 C   0  0  0  0  0  0  0  0  0  0  0  0
    1.8351    3.6255    2.4927 H   0  0  0  0  0  0  0  0  0  0  0  0
    0.6094    4.5555    1.6737 H   0  0  0  0  0  0  0  0  0  0  0  0
    0.9071    2.4287    4.8139 H   0  0  0  0  0  0  0  0  0  0  0  0
    0.1147    3.2071    7.0325 H   0  0  0  0  0  0  0  0  0  0  0  0
   -1.0444    5.3988    7.2540 H   0  0  0  0  0  0  0  0  0  0  0  0
   -1.4082    6.8182    5.2427 H   0  0  0  0  0  0  0  0  0  0  0  0
   -0.6107    6.0618    3.0223 H   0  0  0  0  0  0  0  0  0  0  0  0
  2  3  3  0  0  0  0
  1  2  1  0  0  0  0
  4  6  1  0  0  0  0
  5  6  1  0  0  0  0
  7  4  1  0  0  0  0
  8  7  1  0  0  0  0
  9  7  1  0  0  0  0
 10  7  1  0  0  0  0
 11 10  1  0  0  0  0
 12 10  1  0  0  0  0
 13  5  1  0  0  0  0
 14 13  1  0  0  0  0
 15 13  1  0  0  0  0
 10 13  1  0  0  0  0
  1  6  1  0  0  0  0
 17 16  1  0  0  0  0
 18 16  1  0  0  0  0
 19 16  1  0  0  0  0
  4 16  1  0  0  0  0
 21 20  1  0  0  0  0
 22 20  1  0  0  0  0
 23 20  1  0  0  0  0
  5 20  1  0  0  0  0
 24 25  1  0  0  0  0
 26 24  2  0  0  0  0
 27 24  2  0  0  0  0
  1 25  1  0  0  0  0
 28 29  1  0  0  0  0
 29 30  1  0  0  0  0
 30 31  2  0  0  0  0
 31 32  1  0  0  0  0
 32 33  2  0  0  0  0
 33 34  1  0  0  0  0
 29 34  2  0  0  0  0
 28 35  1  0  0  0  0
 28 36  1  0  0  0  0
 30 37  1  0  0  0  0
 31 38  1  0  0  0  0
 32 39  1  0  0  0  0
 33 40  1  0  0  0  0
 24 28  1  0  0  0  0
 34 41  1  0  0  0  0
 42 43  1  0  0  0  0
 44 42  2  0  0  0  0
 45 42  2  0  0  0  0
  1 43  1  0  0  0  0
 46 47  1  0  0  0  0
 47 48  1  0  0  0  0
 48 49  2  0  0  0  0
 49 50  1  0  0  0  0
 50 51  2  0  0  0  0
 51 52  1  0  0  0  0
 47 52  2  0  0  0  0
 46 53  1  0  0  0  0
 46 54  1  0  0  0  0
 48 55  1  0  0  0  0
 49 56  1  0  0  0  0
 50 57  1  0  0  0  0
 51 58  1  0  0  0  0
 42 46  1  0  0  0  0
 52 59  1  0  0  0  0
M  END
> <PM6_ENERGY>
-867.737

> <UID>
MPIQARQQTFUKMY-XGGOOPEWNA-L

> <FITNESS>
1.14802

> <GCODE>
77780

> <GraphENC>
77780 177_1_0,178_57_1,179_79_1,180_79_1,14588_77_1,14639_77_1,362670_68_1,362754_68_1,3881670_80_1,3881672_80_1, 177_2_178_2_SINGLE_scaff:0_M6HPyrimidinylidene:1,178_0_179_0_SINGLE_L6HPyrimidinylideneSubN:0_ATplus:0,178_1_180_0_SINGLE_L6HPyrimidinylideneSubN:0_ATplus:0,177_0_14588_0_SINGLE_Xlig:0_Xlig:1,177_1_14639_0_SINGLE_Xlig:0_Xlig:1,14588_1_362670_0_SINGLE_bridge:1_bridge:0,14639_1_362754_0_SINGLE_bridge:1_bridge:0,362670_1_3881670_0_SINGLE_bridge:0_ATminus:0,362754_1_3881672_0_SINGLE_bridge:0_ATminus:0, SymmetricSet [symIds=[179, 180]] SymmetricSet [symIds=[14588, 14639]] SymmetricSet [symIds=[362670, 362754]] SymmetricSet [symIds=[3881670, 3881672]] 

> <GraphJson>
{
  "graphId": 77780,
  "gVertices": [
    {
      "lstAPs": [
        {
          "id": 6396062,
          "atomPositionNumber": 0,
          "atomPositionNumberInMol": 0,
          "apClass": {
            "rule": "Xlig",
            "subClass": 0,
            "bndTyp": "SINGLE"
          },
          "dirVec": {
            "x": -2.3339,
            "y": -0.0087,
            "z": 0.8172
          }
        },
        {
          "id": 6396063,
          "atomPositionNumber": 0,
          "atomPositionNumberInMol": 0,
          "apClass": {
            "rule": "Xlig",
            "subClass": 0,
            "bndTyp": "SINGLE"
          },
          "dirVec": {
            "x": 2.336,
            "y": -5.0E-4,
            "z": 0.829
          }
        },
        {
          "id": 6396064,
          "atomPositionNumber": 0,
          "atomPositionNumberInMol": 0,
          "apClass": {
            "rule": "scaff",
            "subClass": 0,
            "bndTyp": "SINGLE"
          },
          "dirVec": {
            "x": -0.0095,
            "y": 0.0046,
            "z": -1.7113
          }
        }
      ],
      "lstSymAPs": [
        {
          "symIds": [
            0,
            1
          ]
        }
      ],
      "mol": {
        "atoms": [
          {
            "elSymbol": "Pt",
            "p3d": {
              "x": -0.0098,
              "y": 0.0049,
              "z": 0.6289
            }
          },
          {
            "elSymbol": "C",
            "p3d": {
              "x": -6.0E-4,
              "y": 0.0016,
              "z": 2.5609
            }
          },
          {
            "elSymbol": "O",
            "p3d": {
              "x": 0.0025,
              "y": -0.0041,
              "z": 3.6974
            }
          },
          {
            "elSymbol": "Du",
            "p3d": {
              "x": -0.007,
              "y": 1.0013,
              "z": 0.6372
            }
          },
          {
            "elSymbol": "Du",
            "p3d": {
              "x": -0.0014,
              "y": 0.9902,
              "z": 2.5698
            }
          }
        ],
        "bonds": [
          {
            "atomIds": [
              1,
              2
            ],
            "bo": "TRIPLE"
          },
          {
            "atomIds": [
              0,
              1
            ],
            "bo": "SINGLE"
          },
          {
            "atomIds": [
              3,
              0
            ],
            "bo": "SINGLE"
          },
          {
            "atomIds": [
              4,
              1
            ],
            "bo": "SINGLE"
          }
        ]
      },
      "vertexId": 177,
      "buildingBlockId": 0,
      "buildingBlockType": "SCAFFOLD",
      "isRCV": false,
      "properties": {
        "ATTACHMENT_POINTS": "1#Xlig:0:SINGLE:-2.3339%-0.0087%0.8172,Xlig:0:SINGLE:2.3360%-0.0005%0.8290,scaff:0:SINGLE:-0.0095%0.0046%-1.7113 "
      },
      "uniquefyingPropertyKeys": [],
      "allowedMutationTypes": [
        "DELETE",
        "EXTEND",
        "CHANGEBRANCH",
        "CHANGELINK",
        "ADDLINK",
        "DELETELINK",
        "DELETECHAIN"
      ],
      "vertexType": "MolecularFragment"
    },
    {
      "lstAPs": [
        {
          "id": 6396065,
          "atomPositionNumber": 0,
          "atomPositionNumberInMol": 5,
          "apClass": {
            "rule": "L6HPyrimidinylideneSubN",
            "subClass": 0,
            "bndTyp": "SINGLE"
          },
          "dirVec": {
            "x": 1.3883407152187113,
            "y": -1.9305708373750663,
            "z": -1.4728451519136216
          }
        },
        {
          "id": 6396066,
          "atomPositionNumber": 1,
          "atomPositionNumberInMol": 6,
          "apClass": {
            "rule": "L6HPyrimidinylideneSubN",
            "subClass": 0,
            "bndTyp": "SINGLE"
          },
          "dirVec": {
            "x": -1.4116930996412638,
            "y": 1.9634648640961083,
            "z": -1.5026726779359287
          }
        },
        {
          "id": 6396067,
          "atomPositionNumber": 2,
          "atomPositionNumberInMol": 7,
          "apClass": {
            "rule": "M6HPyrimidinylidene",
            "subClass": 1,
            "bndTyp": "SINGLE"
          },
          "dirVec": {
            "x": -0.009774765091213413,
            "y": 0.004874765091213455,
            "z": 0.43205088819242465
          }
        }
      ],
      "lstSymAPs": [
        {
          "symIds": [
            0,
            1
          ]
        }
      ],
      "mol": {
        "atoms": [
          {
            "elSymbol": "N",
            "p3d": {
              "x": 0.652072936281195,
              "y": -0.9267391890325968,
              "z": -2.199970333353834
            }
          },
          {
            "elSymbol": "N",
            "p3d": {
              "x": -0.637827129665478,
              "y": 0.9586684358478516,
              "z": -2.207351248841122
            }
          },
          {
            "elSymbol": "C",
            "p3d": {
              "x": -0.009525234908786586,
              "y": 0.004625234908786545,
              "z": -1.514450888192425
            }
          },
          {
            "elSymbol": "C",
            "p3d": {
              "x": 0.7706099453711337,
              "y": -0.965744069636831,
              "z": -3.6731974905719795
            }
          },
          {
            "elSymbol": "H",
            "p3d": {
              "x": 0.8307372333270738,
              "y": -1.99628974262755,
              "z": -4.008849937491664
            }
          },
          {
            "elSymbol": "H",
            "p3d": {
              "x": 1.6820747151742137,
              "y": -0.4467304034846947,
              "z": -3.993204283867276
            }
          },
          {
            "elSymbol": "C",
            "p3d": {
              "x": -0.4361532308738043,
              "y": -0.3026623235442819,
              "z": -4.271360331659661
            }
          },
          {
            "elSymbol": "H",
            "p3d": {
              "x": -1.3129075687927156,
              "y": -0.9228190365300648,
              "z": -4.107831428162321
            }
          },
          {
            "elSymbol": "H",
            "p3d": {
              "x": -0.2961873164001987,
              "y": -0.20869395263456175,
              "z": -5.354131068267435
            }
          },
          {
            "elSymbol": "C",
            "p3d": {
              "x": -0.6377270980980322,
              "y": 1.061002251967289,
              "z": -3.668972581496101
            }
          },
          {
            "elSymbol": "H",
            "p3d": {
              "x": 0.15771643881518566,
              "y": 1.7178324152794513,
              "z": -4.003843311997157
            }
          },
          {
            "elSymbol": "H",
            "p3d": {
              "x": -1.5761233211679573,
              "y": 1.4843624537484181,
              "z": -4.01173595187856
            }
          }
        ],
        "bonds": [
          {
            "atomIds": [
              0,
              2
            ],
            "bo": "SINGLE"
          },
          {
            "atomIds": [
              1,
              2
            ],
            "bo": "SINGLE"
          },
          {
            "atomIds": [
              3,
              0
            ],
            "bo": "SINGLE"
          },
          {
            "atomIds": [
              4,
              3
            ],
            "bo": "SINGLE"
          },
          {
            "atomIds": [
              5,
              3
            ],
            "bo": "SINGLE"
          },
          {
            "atomIds": [
              6,
              3
            ],
            "bo": "SINGLE"
          },
          {
            "atomIds": [
              7,
              6
            ],
            "bo": "SINGLE"
          },
          {
            "atomIds": [
              8,
              6
            ],
            "bo": "SINGLE"
          },
          {
            "atomIds": [
              9,
              1
            ],
            "bo": "SINGLE"
          },
          {
            "atomIds": [
              10,
              9
            ],
            "bo": "SINGLE"
          },
          {
            "atomIds": [
              11,
              9
            ],
            "bo": "SINGLE"
          },
          {
            "atomIds": [
              6,
              9
            ],
            "bo": "SINGLE"
          }
        ]
      },
      "vertexId": 178,
      "buildingBlockId": 56,
      "buildingBlockType": "FRAGMENT",
      "isRCV": false,
      "properties": {
        "ATTACHMENT_POINTS": "1#L6HPyrimidinylideneSubN:0:SINGLE:1.3883%-1.9306%-1.4728 2#L6HPyrimidinylideneSubN:0:SINGLE:-1.4117%1.9635%-1.5027 3#M6HPyrimidinylidene:1:SINGLE:-0.0098%0.0049%0.4321 "
      },
      "uniquefyingPropertyKeys": [],
      "allowedMutationTypes": [
        "DELETE",
        "EXTEND",
        "CHANGEBRANCH",
        "CHANGELINK",
        "ADDLINK",
        "DELETELINK",
        "DELETECHAIN"
      ],
      "vertexType": "MolecularFragment"
    },
    {
      "lstAPs": [
        {
          "id": 6396068,
          "atomPositionNumber": 0,
          "atomPositionNumberInMol": 17,
          "apClass": {
            "rule": "ATplus",
            "subClass": 0,
            "bndTyp": "ANY"
          },
          "dirVec": {
            "x": 1.3883407152187113,
            "y": -1.930570837375066,
            "z": -1.4728451519136216
          }
        }
      ],
      "lstSymAPs": [],
      "mol": {
        "atoms": [
          {
            "elSymbol": "ATP",
            "p3d": {
              "x": 1.3990613300044117,
              "y": -1.9451873841253586,
              "z": -1.4622576602506672
            }
          }
        ],
        "bonds": []
      },
      "vertexId": 179,
      "buildingBlockId": 78,
      "buildingBlockType": "FRAGMENT",
      "isRCV": true,
      "properties": {
        "ATTACHMENT_POINTS": "1#ATplus:0:ANY:1.3883%-1.9306%-1.4728 "
      },
      "uniquefyingPropertyKeys": [],
      "allowedMutationTypes": [
        "DELETE",
        "EXTEND",
        "CHANGEBRANCH",
        "CHANGELINK",
        "ADDLINK",
        "DELETELINK",
        "DELETECHAIN"
      ],
      "vertexType": "MolecularFragment"
    },
    {
      "lstAPs": [
        {
          "id": 6396069,
          "atomPositionNumber": 0,
          "atomPositionNumberInMol": 18,
          "apClass": {
            "rule": "ATplus",
            "subClass": 0,
            "bndTyp": "ANY"
          },
          "dirVec": {
            "x": -1.4116930996412638,
            "y": 1.963464864096108,
            "z": -1.5026726779359287
          }
        }
      ],
      "lstSymAPs": [],
      "mol": {
        "atoms": [
          {
            "elSymbol": "ATP",
            "p3d": {
              "x": -1.422889814938761,
              "y": 1.97800280732598,
              "z": -1.4924770036967328
            }
          }
        ],
        "bonds": []
      },
      "vertexId": 180,
      "buildingBlockId": 78,
      "buildingBlockType": "FRAGMENT",
      "isRCV": true,
      "properties": {
        "ATTACHMENT_POINTS": "1#ATplus:0:ANY:-1.4117%1.9635%-1.5027 "
      },
      "uniquefyingPropertyKeys": [],
      "allowedMutationTypes": [
        "DELETE",
        "EXTEND",
        "CHANGEBRANCH",
        "CHANGELINK",
        "ADDLINK",
        "DELETELINK",
        "DELETECHAIN"
      ],
      "vertexType": "MolecularFragment"
    },
    {
      "lstAPs": [
        {
          "id": 6396070,
          "atomPositionNumber": 1,
          "atomPositionNumberInMol": 20,
          "apClass": {
            "rule": "Xlig",
            "subClass": 1,
            "bndTyp": "SINGLE"
          },
          "dirVec": {
            "x": 5.983,
            "y": 5.659,
            "z": 10.7602
          }
        },
        {
          "id": 6396071,
          "atomPositionNumber": 0,
          "atomPositionNumberInMol": 19,
          "apClass": {
            "rule": "bridge",
            "subClass": 1,
            "bndTyp": "SINGLE"
          },
          "dirVec": {
            "x": 3.1219,
            "y": 7.0322,
            "z": 12.57
          }
        }
      ],
      "lstSymAPs": [],
      "mol": {
        "atoms": [
          {
            "elSymbol": "S",
            "p3d": {
              "x": 3.289,
              "y": 7.1626,
              "z": 10.7898
            }
          },
          {
            "elSymbol": "O",
            "p3d": {
              "x": 4.7494,
              "y": 7.4238,
              "z": 10.5812
            }
          },
          {
            "elSymbol": "O",
            "p3d": {
              "x": 2.8666,
              "y": 5.9079,
              "z": 10.2063
            }
          },
          {
            "elSymbol": "O",
            "p3d": {
              "x": 2.5225,
              "y": 8.319,
              "z": 10.3914
            }
          }
        ],
        "bonds": [
          {
            "atomIds": [
              0,
              1
            ],
            "bo": "SINGLE"
          },
          {
            "atomIds": [
              2,
              0
            ],
            "bo": "DOUBLE"
          },
          {
            "atomIds": [
              3,
              0
            ],
            "bo": "DOUBLE"
          }
        ]
      },
      "vertexId": 14588,
      "buildingBlockId": 76,
      "buildingBlockType": "FRAGMENT",
      "isRCV": false,
      "properties": {
        "ATTACHMENT_POINTS": "1#bridge:1:SINGLE:3.1219%7.0322%12.5700 2#Xlig:1:SINGLE:5.9830%5.6590%10.7602 "
      },
      "uniquefyingPropertyKeys": [],
      "allowedMutationTypes": [
        "DELETE",
        "EXTEND",
        "CHANGEBRANCH",
        "CHANGELINK",
        "ADDLINK",
        "DELETELINK",
        "DELETECHAIN"
      ],
      "vertexType": "MolecularFragment"
    },
    {
      "lstAPs": [
        {
          "id": 6396072,
          "atomPositionNumber": 1,
          "atomPositionNumberInMol": 38,
          "apClass": {
            "rule": "Xlig",
            "subClass": 1,
            "bndTyp": "SINGLE"
          },
          "dirVec": {
            "x": 5.983,
            "y": 5.659,
            "z": 10.7602
          }
        },
        {
          "id": 6396073,
          "atomPositionNumber": 0,
          "atomPositionNumberInMol": 37,
          "apClass": {
            "rule": "bridge",
            "subClass": 1,
            "bndTyp": "SINGLE"
          },
          "dirVec": {
            "x": 3.1219,
            "y": 7.0322,
            "z": 12.57
          }
        }
      ],
      "lstSymAPs": [],
      "mol": {
        "atoms": [
          {
            "elSymbol": "S",
            "p3d": {
              "x": 3.289,
              "y": 7.1626,
              "z": 10.7898
            }
          },
          {
            "elSymbol": "O",
            "p3d": {
              "x": 4.7494,
              "y": 7.4238,
              "z": 10.5812
            }
          },
          {
            "elSymbol": "O",
            "p3d": {
              "x": 2.8666,
              "y": 5.9079,
              "z": 10.2063
            }
          },
          {
            "elSymbol": "O",
            "p3d": {
              "x": 2.5225,
              "y": 8.319,
              "z": 10.3914
            }
          }
        ],
        "bonds": [
          {
            "atomIds": [
              0,
              1
            ],
            "bo": "SINGLE"
          },
          {
            "atomIds": [
              2,
              0
            ],
            "bo": "DOUBLE"
          },
          {
            "atomIds": [
              3,
              0
            ],
            "bo": "DOUBLE"
          }
        ]
      },
      "vertexId": 14639,
      "buildingBlockId": 76,
      "buildingBlockType": "FRAGMENT",
      "isRCV": false,
      "properties": {
        "ATTACHMENT_POINTS": "1#bridge:1:SINGLE:3.1219%7.0322%12.5700 2#Xlig:1:SINGLE:5.9830%5.6590%10.7602 "
      },
      "uniquefyingPropertyKeys": [],
      "allowedMutationTypes": [
        "DELETE",
        "EXTEND",
        "CHANGEBRANCH",
        "CHANGELINK",
        "ADDLINK",
        "DELETELINK",
        "DELETECHAIN"
      ],
      "vertexType": "MolecularFragment"
    },
    {
      "lstAPs": [
        {
          "id": 6396074,
          "atomPositionNumber": 0,
          "atomPositionNumberInMol": 23,
          "apClass": {
            "rule": "bridge",
            "subClass": 0,
            "bndTyp": "SINGLE"
          },
          "dirVec": {
            "x": -2.5958,
            "y": -0.6501,
            "z": -0.7558
          }
        },
        {
          "id": 6396075,
          "atomPositionNumber": 6,
          "atomPositionNumberInMol": 29,
          "apClass": {
            "rule": "bridge",
            "subClass": 0,
            "bndTyp": "SINGLE"
          },
          "dirVec": {
            "x": -0.8149,
            "y": 2.0931,
            "z": 0.1475
          }
        }
      ],
      "lstSymAPs": [],
      "mol": {
        "atoms": [
          {
            "elSymbol": "C",
            "p3d": {
              "x": -1.8258,
              "y": -0.5811,
              "z": 0.5645
            }
          },
          {
            "elSymbol": "C",
            "p3d": {
              "x": -0.3615,
              "y": -0.3647,
              "z": 0.2814
            }
          },
          {
            "elSymbol": "C",
            "p3d": {
              "x": 0.4975,
              "y": -1.4461,
              "z": 0.2179
            }
          },
          {
            "elSymbol": "C",
            "p3d": {
              "x": 1.8404,
              "y": -1.2477,
              "z": -0.0418
            }
          },
          {
            "elSymbol": "C",
            "p3d": {
              "x": 2.3248,
              "y": 0.0323,
              "z": -0.2386
            }
          },
          {
            "elSymbol": "C",
            "p3d": {
              "x": 1.4658,
              "y": 1.1133,
              "z": -0.1761
            }
          },
          {
            "elSymbol": "C",
            "p3d": {
              "x": 0.1217,
              "y": 0.9144,
              "z": 0.0794
            }
          },
          {
            "elSymbol": "H",
            "p3d": {
              "x": -2.206,
              "y": 0.246,
              "z": 1.164
            }
          },
          {
            "elSymbol": "H",
            "p3d": {
              "x": -1.956,
              "y": -1.5155,
              "z": 1.1104
            }
          },
          {
            "elSymbol": "H",
            "p3d": {
              "x": 0.1192,
              "y": -2.446,
              "z": 0.3716
            }
          },
          {
            "elSymbol": "H",
            "p3d": {
              "x": 2.5116,
              "y": -2.0924,
              "z": -0.0906
            }
          },
          {
            "elSymbol": "H",
            "p3d": {
              "x": 3.3743,
              "y": 0.1874,
              "z": -0.4409
            }
          },
          {
            "elSymbol": "H",
            "p3d": {
              "x": 1.8441,
              "y": 2.1132,
              "z": -0.3295
            }
          }
        ],
        "bonds": [
          {
            "atomIds": [
              0,
              1
            ],
            "bo": "SINGLE"
          },
          {
            "atomIds": [
              1,
              2
            ],
            "bo": "SINGLE"
          },
          {
            "atomIds": [
              2,
              3
            ],
            "bo": "DOUBLE"
          },
          {
            "atomIds": [
              3,
              4
            ],
            "bo": "SINGLE"
          },
          {
            "atomIds": [
              4,
              5
            ],
            "bo": "DOUBLE"
          },
          {
            "atomIds": [
              5,
              6
            ],
            "bo": "SINGLE"
          },
          {
            "atomIds": [
              1,
              6
            ],
            "bo": "DOUBLE"
          },
          {
            "atomIds": [
              0,
              7
            ],
            "bo": "SINGLE"
          },
          {
            "atomIds": [
              0,
              8
            ],
            "bo": "SINGLE"
          },
          {
            "atomIds": [
              2,
              9
            ],
            "bo": "SINGLE"
          },
          {
            "atomIds": [
              3,
              10
            ],
            "bo": "SINGLE"
          },
          {
            "atomIds": [
              4,
              11
            ],
            "bo": "SINGLE"
          },
          {
            "atomIds": [
              5,
              12
            ],
            "bo": "SINGLE"
          }
        ]
      },
      "vertexId": 362670,
      "buildingBlockId": 67,
      "buildingBlockType": "FRAGMENT",
      "isRCV": false,
      "properties": {
        "ATTACHMENT_POINTS": "1#bridge:0:SINGLE:-2.5958%-0.6501%-0.7558 7#bridge:0:SINGLE:-0.8149%2.0931%0.1475 "
      },
      "uniquefyingPropertyKeys": [],
      "allowedMutationTypes": [
        "DELETE",
        "EXTEND",
        "CHANGEBRANCH",
        "CHANGELINK",
        "ADDLINK",
        "DELETELINK",
        "DELETECHAIN"
      ],
      "vertexType": "MolecularFragment"
    },
    {
      "lstAPs": [
        {
          "id": 6396076,
          "atomPositionNumber": 0,
          "atomPositionNumberInMol": 41,
          "apClass": {
            "rule": "bridge",
            "subClass": 0,
            "bndTyp": "SINGLE"
          },
          "dirVec": {
            "x": -2.5958,
            "y": -0.6501,
            "z": -0.7558
          }
        },
        {
          "id": 6396077,
          "atomPositionNumber": 6,
          "atomPositionNumberInMol": 47,
          "apClass": {
            "rule": "bridge",
            "subClass": 0,
            "bndTyp": "SINGLE"
          },
          "dirVec": {
            "x": -0.8149,
            "y": 2.0931,
            "z": 0.1475
          }
        }
      ],
      "lstSymAPs": [],
      "mol": {
        "atoms": [
          {
            "elSymbol": "C",
            "p3d": {
              "x": -1.8258,
              "y": -0.5811,
              "z": 0.5645
            }
          },
          {
            "elSymbol": "C",
            "p3d": {
              "x": -0.3615,
              "y": -0.3647,
              "z": 0.2814
            }
          },
          {
            "elSymbol": "C",
            "p3d": {
              "x": 0.4975,
              "y": -1.4461,
              "z": 0.2179
            }
          },
          {
            "elSymbol": "C",
            "p3d": {
              "x": 1.8404,
              "y": -1.2477,
              "z": -0.0418
            }
          },
          {
            "elSymbol": "C",
            "p3d": {
              "x": 2.3248,
              "y": 0.0323,
              "z": -0.2386
            }
          },
          {
            "elSymbol": "C",
            "p3d": {
              "x": 1.4658,
              "y": 1.1133,
              "z": -0.1761
            }
          },
          {
            "elSymbol": "C",
            "p3d": {
              "x": 0.1217,
              "y": 0.9144,
              "z": 0.0794
            }
          },
          {
            "elSymbol": "H",
            "p3d": {
              "x": -2.206,
              "y": 0.246,
              "z": 1.164
            }
          },
          {
            "elSymbol": "H",
            "p3d": {
              "x": -1.956,
              "y": -1.5155,
              "z": 1.1104
            }
          },
          {
            "elSymbol": "H",
            "p3d": {
              "x": 0.1192,
              "y": -2.446,
              "z": 0.3716
            }
          },
          {
            "elSymbol": "H",
            "p3d": {
              "x": 2.5116,
              "y": -2.0924,
              "z": -0.0906
            }
          },
          {
            "elSymbol": "H",
            "p3d": {
              "x": 3.3743,
              "y": 0.1874,
              "z": -0.4409
            }
          },
          {
            "elSymbol": "H",
            "p3d": {
              "x": 1.8441,
              "y": 2.1132,
              "z": -0.3295
            }
          }
        ],
        "bonds": [
          {
            "atomIds": [
              0,
              1
            ],
            "bo": "SINGLE"
          },
          {
            "atomIds": [
              1,
              2
            ],
            "bo": "SINGLE"
          },
          {
            "atomIds": [
              2,
              3
            ],
            "bo": "DOUBLE"
          },
          {
            "atomIds": [
              3,
              4
            ],
            "bo": "SINGLE"
          },
          {
            "atomIds": [
              4,
              5
            ],
            "bo": "DOUBLE"
          },
          {
            "atomIds": [
              5,
              6
            ],
            "bo": "SINGLE"
          },
          {
            "atomIds": [
              1,
              6
            ],
            "bo": "DOUBLE"
          },
          {
            "atomIds": [
              0,
              7
            ],
            "bo": "SINGLE"
          },
          {
            "atomIds": [
              0,
              8
            ],
            "bo": "SINGLE"
          },
          {
            "atomIds": [
              2,
              9
            ],
            "bo": "SINGLE"
          },
          {
            "atomIds": [
              3,
              10
            ],
            "bo": "SINGLE"
          },
          {
            "atomIds": [
              4,
              11
            ],
            "bo": "SINGLE"
          },
          {
            "atomIds": [
              5,
              12
            ],
            "bo": "SINGLE"
          }
        ]
      },
      "vertexId": 362754,
      "buildingBlockId": 67,
      "buildingBlockType": "FRAGMENT",
      "isRCV": false,
      "properties": {
        "ATTACHMENT_POINTS": "1#bridge:0:SINGLE:-2.5958%-0.6501%-0.7558 7#bridge:0:SINGLE:-0.8149%2.0931%0.1475 "
      },
      "uniquefyingPropertyKeys": [],
      "allowedMutationTypes": [
        "DELETE",
        "EXTEND",
        "CHANGEBRANCH",
        "CHANGELINK",
        "ADDLINK",
        "DELETELINK",
        "DELETECHAIN"
      ],
      "vertexType": "MolecularFragment"
    },
    {
      "lstAPs": [
        {
          "id": 6396278,
          "atomPositionNumber": 0,
          "atomPositionNumberInMol": 36,
          "apClass": {
            "rule": "ATminus",
            "subClass": 0,
            "bndTyp": "ANY"
          },
          "dirVec": {
            "x": 0.0109,
            "y": -0.0071,
            "z": 0.0026
          }
        }
      ],
      "lstSymAPs": [],
      "mol": {
        "atoms": [
          {
            "elSymbol": "ATM",
            "p3d": {
              "x": -0.0096,
              "y": 0.0045,
              "z": -0.0011
            }
          }
        ],
        "bonds": []
      },
      "vertexId": 3881670,
      "buildingBlockId": 79,
      "buildingBlockType": "FRAGMENT",
      "isRCV": true,
      "properties": {
        "ATTACHMENT_POINTS": "1#ATminus:0:ANY:0.0109%-0.0071%0.0026 "
      },
      "uniquefyingPropertyKeys": [],
      "allowedMutationTypes": [
        "DELETE",
        "EXTEND",
        "CHANGEBRANCH",
        "CHANGELINK",
        "ADDLINK",
        "DELETELINK",
        "DELETECHAIN"
      ],
      "vertexType": "MolecularFragment"
    },
    {
      "lstAPs": [
        {
          "id": 6396279,
          "atomPositionNumber": 0,
          "atomPositionNumberInMol": 54,
          "apClass": {
            "rule": "ATminus",
            "subClass": 0,
            "bndTyp": "ANY"
          },
          "dirVec": {
            "x": 0.0109,
            "y": -0.0071,
            "z": 0.0026
          }
        }
      ],
      "lstSymAPs": [],
      "mol": {
        "atoms": [
          {
            "elSymbol": "ATM",
            "p3d": {
              "x": -0.0096,
              "y": 0.0045,
              "z": -0.0011
            }
          }
        ],
        "bonds": []
      },
      "vertexId": 3881672,
      "buildingBlockId": 79,
      "buildingBlockType": "FRAGMENT",
      "isRCV": true,
      "properties": {
        "ATTACHMENT_POINTS": "1#ATminus:0:ANY:0.0109%-0.0071%0.0026 "
      },
      "uniquefyingPropertyKeys": [],
      "allowedMutationTypes": [
        "DELETE",
        "EXTEND",
        "CHANGEBRANCH",
        "CHANGELINK",
        "ADDLINK",
        "DELETELINK",
        "DELETECHAIN"
      ],
      "vertexType": "MolecularFragment"
    }
  ],
  "gEdges": [
    {
      "srcAPID": 6396064,
      "trgAPID": 6396067,
      "bondType": "SINGLE"
    },
    {
      "srcAPID": 6396065,
      "trgAPID": 6396068,
      "bondType": "SINGLE"
    },
    {
      "srcAPID": 6396066,
      "trgAPID": 6396069,
      "bondType": "SINGLE"
    },
    {
      "srcAPID": 6396062,
      "trgAPID": 6396070,
      "bondType": "SINGLE"
    },
    {
      "srcAPID": 6396063,
      "trgAPID": 6396072,
      "bondType": "SINGLE"
    },
    {
      "srcAPID": 6396071,
      "trgAPID": 6396074,
      "bondType": "SINGLE"
    },
    {
      "srcAPID": 6396073,
      "trgAPID": 6396076,
      "bondType": "SINGLE"
    },
    {
      "srcAPID": 6396075,
      "trgAPID": 6396278,
      "bondType": "SINGLE"
    },
    {
      "srcAPID": 6396077,
      "trgAPID": 6396279,
      "bondType": "SINGLE"
    }
  ],
  "gRings": [],
  "symVertices": [
    {
      "symIds": [
        179,
        180
      ]
    },
    {
      "symIds": [
        14588,
        14639
      ]
    },
    {
      "symIds": [
        362670,
        362754
      ]
    },
    {
      "symIds": [
        3881670,
        3881672
      ]
    }
  ]
}

> <SMILES>
[Pt](C#O)([C]1N(C([H])([H])C([H])([H])C(N1[H])([H])[H])[H])(OS(=O)(=O)C(C=2C(=C(C(=C(C2[H])[H])[H])[H])[H])([H])[H])OS(=O)(=O)C(C=3C(=C(C(=C(C3[H])[H])[H])[H])[H])([H])[H]

$$$$
