M30077609
  CDK     05082205333D

 32 34  0  0  0  0  0  0  0  0999 V2000
   -3.1368    0.0142    1.0980 Pt  0  0  0  0  0  0  0  0  0  0  0  0
   -4.9486    0.0225    1.7347 C   0  0  0  0  0  0  0  0  0  0  0  0
   -6.0290    0.0277    2.1152 O   0  0  0  0  0  0  0  0  0  0  0  0
   -0.5335    1.1306    0.2401 N   0  0  1  0  0  0  0  0  0  0  0  0
   -1.2685    0.0059    0.4428 C   0  0  0  0  0  0  0  0  0  0  0  0
   -0.5767   -1.1254    0.1462 N   0  0  1  0  0  0  0  0  0  0  0  0
    0.8259   -0.7989   -0.2920 C   0  0  1  0  0  0  0  0  0  0  0  0
    0.8341    0.7913   -0.2895 C   0  0  1  0  0  0  0  0  0  0  0  0
    0.9782   -1.1977   -1.3245 H   0  0  0  0  0  0  0  0  0  0  0  0
    1.5994    1.1858    0.4225 H   0  0  0  0  0  0  0  0  0  0  0  0
    1.3734    2.8499   -1.6838 C   0  0  0  0  0  0  0  0  0  0  0  0
    1.0721    1.3559   -1.6965 C   0  0  0  0  0  0  0  0  0  0  0  0
    2.2457    3.0931   -1.0666 H   0  0  0  0  0  0  0  0  0  0  0  0
    1.5811    3.2171   -2.6976 H   0  0  0  0  0  0  0  0  0  0  0  0
    0.5206    3.4328   -1.3025 H   0  0  0  0  0  0  0  0  0  0  0  0
    0.1891    1.1579   -2.3415 H   0  0  0  0  0  0  0  0  0  0  0  0
    1.9173    0.8136   -2.1690 H   0  0  0  0  0  0  0  0  0  0  0  0
    2.0975   -2.8662    0.4711 C   0  0  0  0  0  0  0  0  0  0  0  0
    1.8835   -1.3694    0.6625 C   0  0  0  0  0  0  0  0  0  0  0  0
    2.3923   -3.1166   -0.5543 H   0  0  0  0  0  0  0  0  0  0  0  0
    2.8885   -3.2379    1.1358 H   0  0  0  0  0  0  0  0  0  0  0  0
    1.1875   -3.4398    0.7072 H   0  0  0  0  0  0  0  0  0  0  0  0
    1.5966   -1.1644    1.7164 H   0  0  0  0  0  0  0  0  0  0  0  0
    2.8440   -0.8366    0.5031 H   0  0  0  0  0  0  0  0  0  0  0  0
   -2.7829   -2.2939    1.2219 S   0  0  0  0  0  0  0  0  0  0  0  0
   -1.2092   -2.4462    0.2722 C   0  0  0  0  0  0  0  0  0  0  0  0
   -0.5382   -3.1511    0.8179 H   0  0  0  0  0  0  0  0  0  0  0  0
   -1.4379   -2.8624   -0.7333 H   0  0  0  0  0  0  0  0  0  0  0  0
   -2.9190    2.3200    0.7744 S   0  0  0  0  0  0  0  0  0  0  0  0
   -1.0958    2.4571    0.5309 C   0  0  0  0  0  0  0  0  0  0  0  0
   -0.9080    3.1564   -0.3181 H   0  0  0  0  0  0  0  0  0  0  0  0
   -0.6425    2.8746    1.4564 H   0  0  0  0  0  0  0  0  0  0  0  0
  2  3  3  0  0  0  0
  1  2  1  0  0  0  0
  4  5  1  0  0  0  0
  6  5  1  0  0  0  0
  7  6  1  0  0  0  0
  7  8  1  0  0  0  0
  8  4  1  0  0  0  0
  9  7  1  0  0  0  0
 10  8  1  0  0  0  0
  1  5  1  0  0  0  0
 11 12  1  0  0  0  0
 11 13  1  0  0  0  0
 11 14  1  0  0  0  0
 11 15  1  0  0  0  0
 12 16  1  0  0  0  0
 12 17  1  0  0  0  0
  8 12  1  0  0  0  0
 18 19  1  0  0  0  0
 18 20  1  0  0  0  0
 18 21  1  0  0  0  0
 18 22  1  0  0  0  0
 19 23  1  0  0  0  0
 19 24  1  0  0  0  0
  7 19  1  0  0  0  0
  1 25  1  0  0  0  0
 26 27  1  0  0  0  0
 26 28  1  0  0  0  0
 25 26  1  0  0  0  0
  1 29  1  0  0  0  0
 30 31  1  0  0  0  0
 30 32  1  0  0  0  0
 29 30  1  0  0  0  0
  6 26  1  0  0  0  0
  4 30  1  0  0  0  0
M  END
> <PM6_ENERGY>
-31.400

> <UID>
SMHUKIQBESORAR-KWCPPJNTNA-L

> <FITNESS>
1.14546

> <GCODE>
174085

> <GraphENC>
174085 9595611_1_0,9595612_60_1,9595613_79_1,9595614_79_1,9595615_74_1,9595616_74_1,9595617_25_1,9595618_25_1,9595619_67_1,9595620_67_1,9595621_80_1,9595622_80_1, 9595611_2_9595612_1_SINGLE_scaff:0_MImidazolidinylidene:1,9595612_2_9595613_0_SINGLE_LImidazolidinylideneSubNL:0_ATplus:0,9595612_0_9595614_0_SINGLE_LImidazolidinylideneSubNL:0_ATplus:0,9595611_1_9595615_0_SINGLE_Xlig:0_Xlig:1,9595611_0_9595616_0_SINGLE_Xlig:0_Xlig:1,9595612_4_9595617_0_SINGLE_LImidazolidinylideneSubCL:0_SubRS:1,9595612_3_9595618_0_SINGLE_LImidazolidinylideneSubCL:0_SubRS:1,9595615_1_9595619_0_SINGLE_bridge:1_bridge:0,9595616_1_9595620_0_SINGLE_bridge:1_bridge:0,9595619_1_9595621_0_SINGLE_bridge:0_ATminus:0,9595620_1_9595622_0_SINGLE_bridge:0_ATminus:0, DENOPTIMRing [vertices=[9595613_79_1, 9595612_60_1, 9595611_1_0, 9595615_74_1, 9595619_67_1, 9595621_80_1]] DENOPTIMRing [vertices=[9595614_79_1, 9595612_60_1, 9595611_1_0, 9595616_74_1, 9595620_67_1, 9595622_80_1]] SymmetricSet [symIds=[9595613, 9595614]] SymmetricSet [symIds=[9595615, 9595616]] SymmetricSet [symIds=[9595617, 9595618]] SymmetricSet [symIds=[9595619, 9595620]] SymmetricSet [symIds=[9595621, 9595622]] 

> <GraphJson>
{
  "graphId": 174085,
  "gVertices": [
    {
      "lstAPs": [
        {
          "id": 16061332,
          "atomPositionNumber": 0,
          "atomPositionNumberInMol": -1,
          "apClass": {
            "rule": "Xlig",
            "subClass": 0,
            "bndTyp": "SINGLE"
          },
          "dirVec": {
            "x": -2.3339,
            "y": -0.0087,
            "z": 0.8172
          }
        },
        {
          "id": 16061333,
          "atomPositionNumber": 0,
          "atomPositionNumberInMol": -1,
          "apClass": {
            "rule": "Xlig",
            "subClass": 0,
            "bndTyp": "SINGLE"
          },
          "dirVec": {
            "x": 2.336,
            "y": -5.0E-4,
            "z": 0.829
          }
        },
        {
          "id": 16061334,
          "atomPositionNumber": 0,
          "atomPositionNumberInMol": -1,
          "apClass": {
            "rule": "scaff",
            "subClass": 0,
            "bndTyp": "SINGLE"
          },
          "dirVec": {
            "x": -0.0095,
            "y": 0.0046,
            "z": -1.7113
          }
        }
      ],
      "lstSymAPs": [
        {
          "symIds": [
            0,
            1
          ]
        }
      ],
      "mol": {
        "atoms": [
          {
            "elSymbol": "Pt",
            "p3d": {
              "x": -0.0098,
              "y": 0.0049,
              "z": 0.6289
            }
          },
          {
            "elSymbol": "C",
            "p3d": {
              "x": -6.0E-4,
              "y": 0.0016,
              "z": 2.5609
            }
          },
          {
            "elSymbol": "O",
            "p3d": {
              "x": 0.0025,
              "y": -0.0041,
              "z": 3.6974
            }
          },
          {
            "elSymbol": "Du",
            "p3d": {
              "x": -0.007,
              "y": 1.0013,
              "z": 0.6372
            }
          },
          {
            "elSymbol": "Du",
            "p3d": {
              "x": -0.0014,
              "y": 0.9902,
              "z": 2.5698
            }
          }
        ],
        "bonds": [
          {
            "atomIds": [
              1,
              2
            ],
            "bo": "TRIPLE"
          },
          {
            "atomIds": [
              0,
              1
            ],
            "bo": "SINGLE"
          },
          {
            "atomIds": [
              3,
              0
            ],
            "bo": "SINGLE"
          },
          {
            "atomIds": [
              4,
              1
            ],
            "bo": "SINGLE"
          }
        ]
      },
      "vertexId": 9595611,
      "buildingBlockId": 0,
      "buildingBlockType": "SCAFFOLD",
      "isRCV": false,
      "properties": {
        "ATTACHMENT_POINTS": "1#Xlig:0:SINGLE:-2.3339%-0.0087%0.8172,Xlig:0:SINGLE:2.3360%-0.0005%0.8290,scaff:0:SINGLE:-0.0095%0.0046%-1.7113 ",
        "OLDVERTEXID": 205
      },
      "uniquefyingPropertyKeys": [],
      "allowedMutationTypes": [
        "DELETE",
        "EXTEND",
        "CHANGEBRANCH",
        "CHANGELINK",
        "ADDLINK",
        "DELETELINK",
        "DELETECHAIN"
      ],
      "vertexType": "MolecularFragment"
    },
    {
      "lstAPs": [
        {
          "id": 16061335,
          "atomPositionNumber": 0,
          "atomPositionNumberInMol": -1,
          "apClass": {
            "rule": "LImidazolidinylideneSubNL",
            "subClass": 0,
            "bndTyp": "SINGLE"
          },
          "dirVec": {
            "x": 0.9114374237224112,
            "y": -2.269162114034064,
            "z": -1.73512216162091
          }
        },
        {
          "id": 16061336,
          "atomPositionNumber": 1,
          "atomPositionNumberInMol": -1,
          "apClass": {
            "rule": "MImidazolidinylidene",
            "subClass": 1,
            "bndTyp": "SINGLE"
          },
          "dirVec": {
            "x": -0.009781397536660474,
            "y": 0.004881397536660548,
            "z": 0.4837883843094877
          }
        },
        {
          "id": 16061337,
          "atomPositionNumber": 2,
          "atomPositionNumberInMol": -1,
          "apClass": {
            "rule": "LImidazolidinylideneSubNL",
            "subClass": 0,
            "bndTyp": "SINGLE"
          },
          "dirVec": {
            "x": -0.9076453420528022,
            "y": 2.2675608164958976,
            "z": -1.810031993173502
          }
        },
        {
          "id": 16061338,
          "atomPositionNumber": 3,
          "atomPositionNumberInMol": -1,
          "apClass": {
            "rule": "LImidazolidinylideneSubCL",
            "subClass": 0,
            "bndTyp": "SINGLE"
          },
          "dirVec": {
            "x": -1.9597652498362117,
            "y": 0.3654872507731368,
            "z": -4.371946970338932
          }
        },
        {
          "id": 16061339,
          "atomPositionNumber": 4,
          "atomPositionNumberInMol": -1,
          "apClass": {
            "rule": "LImidazolidinylideneSubCL",
            "subClass": 0,
            "bndTyp": "SINGLE"
          },
          "dirVec": {
            "x": 1.7398715117890693,
            "y": -0.589379512252807,
            "z": -4.485128403883309
          }
        }
      ],
      "lstSymAPs": [
        {
          "symIds": [
            0,
            2
          ]
        },
        {
          "symIds": [
            3,
            4
          ]
        }
      ],
      "mol": {
        "atoms": [
          {
            "elSymbol": "N",
            "p3d": {
              "x": 0.4620029374357079,
              "y": -1.0012870581278954,
              "z": -2.317095069192333
            }
          },
          {
            "elSymbol": "C",
            "p3d": {
              "x": -0.009518602463339527,
              "y": 0.004618602463339452,
              "z": -1.5661883843094881
            }
          },
          {
            "elSymbol": "N",
            "p3d": {
              "x": -0.495416972415669,
              "y": 0.9580453104531106,
              "z": -2.3396500165637697
            }
          },
          {
            "elSymbol": "C",
            "p3d": {
              "x": -0.5068910066519264,
              "y": 0.5648308504550289,
              "z": -3.756401291483529
            }
          },
          {
            "elSymbol": "C",
            "p3d": {
              "x": 0.3605416829394851,
              "y": -0.6971172079421345,
              "z": -3.770728780301849
            }
          },
          {
            "elSymbol": "H",
            "p3d": {
              "x": -0.1309303334286437,
              "y": 1.330189770633253,
              "z": -4.435352464612437
            }
          },
          {
            "elSymbol": "H",
            "p3d": {
              "x": -0.08828628907134929,
              "y": -1.5032723399177854,
              "z": -4.3711397435011925
            }
          }
        ],
        "bonds": [
          {
            "atomIds": [
              0,
              1
            ],
            "bo": "SINGLE"
          },
          {
            "atomIds": [
              2,
              1
            ],
            "bo": "SINGLE"
          },
          {
            "atomIds": [
              3,
              2
            ],
            "bo": "SINGLE"
          },
          {
            "atomIds": [
              3,
              4
            ],
            "bo": "SINGLE"
          },
          {
            "atomIds": [
              4,
              0
            ],
            "bo": "SINGLE"
          },
          {
            "atomIds": [
              5,
              3
            ],
            "bo": "SINGLE"
          },
          {
            "atomIds": [
              6,
              4
            ],
            "bo": "SINGLE"
          }
        ]
      },
      "vertexId": 9595612,
      "buildingBlockId": 59,
      "buildingBlockType": "FRAGMENT",
      "isRCV": false,
      "properties": {
        "ATTACHMENT_POINTS": "1#LImidazolidinylideneSubNL:0:SINGLE:0.9114%-2.2692%-1.7351 2#MImidazolidinylidene:1:SINGLE:-0.0098%0.0049%0.4838 3#LImidazolidinylideneSubNL:0:SINGLE:-0.9076%2.2676%-1.8100 4#LImidazolidinylideneSubCL:0:SINGLE:-1.9598%0.3655%-4.3719 5#LImidazolidinylideneSubCL:0:SINGLE:1.7399%-0.5894%-4.4851 ",
        "OLDVERTEXID": 206
      },
      "uniquefyingPropertyKeys": [],
      "allowedMutationTypes": [
        "DELETE",
        "EXTEND",
        "CHANGEBRANCH",
        "CHANGELINK",
        "ADDLINK",
        "DELETELINK",
        "DELETECHAIN"
      ],
      "vertexType": "MolecularFragment"
    },
    {
      "lstAPs": [
        {
          "id": 16061340,
          "atomPositionNumber": 0,
          "atomPositionNumberInMol": -1,
          "apClass": {
            "rule": "ATplus",
            "subClass": 0,
            "bndTyp": "ANY"
          },
          "dirVec": {
            "x": -0.9076453420528022,
            "y": 2.2675608164958976,
            "z": -1.810031993173502
          }
        }
      ],
      "lstSymAPs": [],
      "mol": {
        "atoms": [
          {
            "elSymbol": "ATP",
            "p3d": {
              "x": -0.9135261874114748,
              "y": 2.2862423502113005,
              "z": -1.8024764683136634
            }
          }
        ],
        "bonds": []
      },
      "vertexId": 9595613,
      "buildingBlockId": 78,
      "buildingBlockType": "FRAGMENT",
      "isRCV": true,
      "properties": {
        "ATTACHMENT_POINTS": "1#ATplus:0:ANY:-0.9076%2.2676%-1.8100 ",
        "OLDVERTEXID": 207
      },
      "uniquefyingPropertyKeys": [],
      "allowedMutationTypes": [
        "DELETE",
        "EXTEND",
        "CHANGEBRANCH",
        "CHANGELINK",
        "ADDLINK",
        "DELETELINK",
        "DELETECHAIN"
      ],
      "vertexType": "MolecularFragment"
    },
    {
      "lstAPs": [
        {
          "id": 16061341,
          "atomPositionNumber": 0,
          "atomPositionNumberInMol": -1,
          "apClass": {
            "rule": "ATplus",
            "subClass": 0,
            "bndTyp": "ANY"
          },
          "dirVec": {
            "x": 0.9114374237224112,
            "y": -2.269162114034064,
            "z": -1.73512216162091
          }
        }
      ],
      "lstSymAPs": [],
      "mol": {
        "atoms": [
          {
            "elSymbol": "ATP",
            "p3d": {
              "x": 0.9178744709033246,
              "y": -2.28732131588304,
              "z": -1.7267868264867459
            }
          }
        ],
        "bonds": []
      },
      "vertexId": 9595614,
      "buildingBlockId": 78,
      "buildingBlockType": "FRAGMENT",
      "isRCV": true,
      "properties": {
        "ATTACHMENT_POINTS": "1#ATplus:0:ANY:0.9114%-2.2692%-1.7351 ",
        "OLDVERTEXID": 208
      },
      "uniquefyingPropertyKeys": [],
      "allowedMutationTypes": [
        "DELETE",
        "EXTEND",
        "CHANGEBRANCH",
        "CHANGELINK",
        "ADDLINK",
        "DELETELINK",
        "DELETECHAIN"
      ],
      "vertexType": "MolecularFragment"
    },
    {
      "lstAPs": [
        {
          "id": 16061342,
          "atomPositionNumber": 0,
          "atomPositionNumberInMol": -1,
          "apClass": {
            "rule": "Xlig",
            "subClass": 1,
            "bndTyp": "SINGLE"
          },
          "dirVec": {
            "x": -0.102,
            "y": 0.0185,
            "z": -1.0265
          }
        },
        {
          "id": 16061343,
          "atomPositionNumber": 0,
          "atomPositionNumberInMol": -1,
          "apClass": {
            "rule": "bridge",
            "subClass": 1,
            "bndTyp": "SINGLE"
          },
          "dirVec": {
            "x": -0.626,
            "y": 2.4866,
            "z": 0.7805
          }
        }
      ],
      "lstSymAPs": [],
      "mol": {
        "atoms": [
          {
            "elSymbol": "S",
            "p3d": {
              "x": -0.3267,
              "y": 2.3403,
              "z": -1.0022
            }
          }
        ],
        "bonds": []
      },
      "vertexId": 9595615,
      "buildingBlockId": 73,
      "buildingBlockType": "FRAGMENT",
      "isRCV": false,
      "properties": {
        "ATTACHMENT_POINTS": "1#Xlig:1:SINGLE:-0.1020%0.0185%-1.0265,bridge:1:SINGLE:-0.6260%2.4866%0.7805 ",
        "OLDVERTEXID": 8496
      },
      "uniquefyingPropertyKeys": [],
      "allowedMutationTypes": [
        "DELETE",
        "EXTEND",
        "CHANGEBRANCH",
        "CHANGELINK",
        "ADDLINK",
        "DELETELINK",
        "DELETECHAIN"
      ],
      "vertexType": "MolecularFragment"
    },
    {
      "lstAPs": [
        {
          "id": 16061344,
          "atomPositionNumber": 0,
          "atomPositionNumberInMol": -1,
          "apClass": {
            "rule": "Xlig",
            "subClass": 1,
            "bndTyp": "SINGLE"
          },
          "dirVec": {
            "x": -0.102,
            "y": 0.0185,
            "z": -1.0265
          }
        },
        {
          "id": 16061345,
          "atomPositionNumber": 0,
          "atomPositionNumberInMol": -1,
          "apClass": {
            "rule": "bridge",
            "subClass": 1,
            "bndTyp": "SINGLE"
          },
          "dirVec": {
            "x": -0.626,
            "y": 2.4866,
            "z": 0.7805
          }
        }
      ],
      "lstSymAPs": [],
      "mol": {
        "atoms": [
          {
            "elSymbol": "S",
            "p3d": {
              "x": -0.3267,
              "y": 2.3403,
              "z": -1.0022
            }
          }
        ],
        "bonds": []
      },
      "vertexId": 9595616,
      "buildingBlockId": 73,
      "buildingBlockType": "FRAGMENT",
      "isRCV": false,
      "properties": {
        "ATTACHMENT_POINTS": "1#Xlig:1:SINGLE:-0.1020%0.0185%-1.0265,bridge:1:SINGLE:-0.6260%2.4866%0.7805 ",
        "OLDVERTEXID": 8378
      },
      "uniquefyingPropertyKeys": [],
      "allowedMutationTypes": [
        "DELETE",
        "EXTEND",
        "CHANGEBRANCH",
        "CHANGELINK",
        "ADDLINK",
        "DELETELINK",
        "DELETECHAIN"
      ],
      "vertexType": "MolecularFragment"
    },
    {
      "lstAPs": [
        {
          "id": 16061346,
          "atomPositionNumber": 1,
          "atomPositionNumberInMol": -1,
          "apClass": {
            "rule": "SubRS",
            "subClass": 1,
            "bndTyp": "SINGLE"
          },
          "dirVec": {
            "x": 0.2985,
            "y": 0.384,
            "z": -0.6258
          }
        }
      ],
      "lstSymAPs": [],
      "mol": {
        "atoms": [
          {
            "elSymbol": "C",
            "p3d": {
              "x": -1.0244,
              "y": -0.2225,
              "z": 1.3991
            }
          },
          {
            "elSymbol": "C",
            "p3d": {
              "x": 0.3973,
              "y": -0.042,
              "z": 0.8195
            }
          },
          {
            "elSymbol": "H",
            "p3d": {
              "x": -1.5635,
              "y": -0.9908,
              "z": 0.8263
            }
          },
          {
            "elSymbol": "H",
            "p3d": {
              "x": -0.941,
              "y": -0.535,
              "z": 2.446
            }
          },
          {
            "elSymbol": "H",
            "p3d": {
              "x": -1.5586,
              "y": 0.7335,
              "z": 1.3382
            }
          },
          {
            "elSymbol": "H",
            "p3d": {
              "x": 0.9335,
              "y": 0.7221,
              "z": 1.4011
            }
          },
          {
            "elSymbol": "H",
            "p3d": {
              "x": 0.927,
              "y": -1.0102,
              "z": 0.9001
            }
          }
        ],
        "bonds": [
          {
            "atomIds": [
              0,
              1
            ],
            "bo": "SINGLE"
          },
          {
            "atomIds": [
              0,
              2
            ],
            "bo": "SINGLE"
          },
          {
            "atomIds": [
              0,
              3
            ],
            "bo": "SINGLE"
          },
          {
            "atomIds": [
              0,
              4
            ],
            "bo": "SINGLE"
          },
          {
            "atomIds": [
              1,
              5
            ],
            "bo": "SINGLE"
          },
          {
            "atomIds": [
              1,
              6
            ],
            "bo": "SINGLE"
          }
        ]
      },
      "vertexId": 9595617,
      "buildingBlockId": 24,
      "buildingBlockType": "FRAGMENT",
      "isRCV": false,
      "properties": {
        "ATTACHMENT_POINTS": "2#SubRS:1:SINGLE:0.2985%0.3840%-0.6258 ",
        "OLDVERTEXID": 8497
      },
      "uniquefyingPropertyKeys": [],
      "allowedMutationTypes": [
        "DELETE",
        "EXTEND",
        "CHANGEBRANCH",
        "CHANGELINK",
        "ADDLINK",
        "DELETELINK",
        "DELETECHAIN"
      ],
      "vertexType": "MolecularFragment"
    },
    {
      "lstAPs": [
        {
          "id": 16061347,
          "atomPositionNumber": 1,
          "atomPositionNumberInMol": -1,
          "apClass": {
            "rule": "SubRS",
            "subClass": 1,
            "bndTyp": "SINGLE"
          },
          "dirVec": {
            "x": 0.2985,
            "y": 0.384,
            "z": -0.6258
          }
        }
      ],
      "lstSymAPs": [],
      "mol": {
        "atoms": [
          {
            "elSymbol": "C",
            "p3d": {
              "x": -1.0244,
              "y": -0.2225,
              "z": 1.3991
            }
          },
          {
            "elSymbol": "C",
            "p3d": {
              "x": 0.3973,
              "y": -0.042,
              "z": 0.8195
            }
          },
          {
            "elSymbol": "H",
            "p3d": {
              "x": -1.5635,
              "y": -0.9908,
              "z": 0.8263
            }
          },
          {
            "elSymbol": "H",
            "p3d": {
              "x": -0.941,
              "y": -0.535,
              "z": 2.446
            }
          },
          {
            "elSymbol": "H",
            "p3d": {
              "x": -1.5586,
              "y": 0.7335,
              "z": 1.3382
            }
          },
          {
            "elSymbol": "H",
            "p3d": {
              "x": 0.9335,
              "y": 0.7221,
              "z": 1.4011
            }
          },
          {
            "elSymbol": "H",
            "p3d": {
              "x": 0.927,
              "y": -1.0102,
              "z": 0.9001
            }
          }
        ],
        "bonds": [
          {
            "atomIds": [
              0,
              1
            ],
            "bo": "SINGLE"
          },
          {
            "atomIds": [
              0,
              2
            ],
            "bo": "SINGLE"
          },
          {
            "atomIds": [
              0,
              3
            ],
            "bo": "SINGLE"
          },
          {
            "atomIds": [
              0,
              4
            ],
            "bo": "SINGLE"
          },
          {
            "atomIds": [
              1,
              5
            ],
            "bo": "SINGLE"
          },
          {
            "atomIds": [
              1,
              6
            ],
            "bo": "SINGLE"
          }
        ]
      },
      "vertexId": 9595618,
      "buildingBlockId": 24,
      "buildingBlockType": "FRAGMENT",
      "isRCV": false,
      "properties": {
        "ATTACHMENT_POINTS": "2#SubRS:1:SINGLE:0.2985%0.3840%-0.6258 ",
        "OLDVERTEXID": 8386
      },
      "uniquefyingPropertyKeys": [],
      "allowedMutationTypes": [
        "DELETE",
        "EXTEND",
        "CHANGEBRANCH",
        "CHANGELINK",
        "ADDLINK",
        "DELETELINK",
        "DELETECHAIN"
      ],
      "vertexType": "MolecularFragment"
    },
    {
      "lstAPs": [
        {
          "id": 16061348,
          "atomPositionNumber": 0,
          "atomPositionNumberInMol": -1,
          "apClass": {
            "rule": "bridge",
            "subClass": 0,
            "bndTyp": "SINGLE"
          },
          "dirVec": {
            "x": -1.0417,
            "y": -0.7693,
            "z": 0.07320000000000002
          }
        },
        {
          "id": 16061349,
          "atomPositionNumber": 0,
          "atomPositionNumberInMol": -1,
          "apClass": {
            "rule": "bridge",
            "subClass": 0,
            "bndTyp": "SINGLE"
          },
          "dirVec": {
            "x": 1.2664,
            "y": -1.9999999999997797E-4,
            "z": 0.2522
          }
        }
      ],
      "lstSymAPs": [
        {
          "symIds": [
            0,
            1
          ]
        }
      ],
      "mol": {
        "atoms": [
          {
            "elSymbol": "C",
            "p3d": {
              "x": 0.4112,
              "y": -1.2101,
              "z": -0.1993
            }
          },
          {
            "elSymbol": "H",
            "p3d": {
              "x": 0.6587,
              "y": -2.0933,
              "z": 0.3897
            }
          },
          {
            "elSymbol": "H",
            "p3d": {
              "x": 0.5577,
              "y": -1.4056,
              "z": -1.2616
            }
          }
        ],
        "bonds": [
          {
            "atomIds": [
              0,
              1
            ],
            "bo": "SINGLE"
          },
          {
            "atomIds": [
              0,
              2
            ],
            "bo": "SINGLE"
          }
        ]
      },
      "vertexId": 9595619,
      "buildingBlockId": 66,
      "buildingBlockType": "FRAGMENT",
      "isRCV": false,
      "properties": {
        "ATTACHMENT_POINTS": "1#bridge:0:SINGLE:-1.0417%-0.7693%0.0732,bridge:0:SINGLE:1.2664%-0.0002%0.2522 ",
        "OLDVERTEXID": 169098
      },
      "uniquefyingPropertyKeys": [],
      "allowedMutationTypes": [
        "DELETE",
        "EXTEND",
        "CHANGEBRANCH",
        "CHANGELINK",
        "ADDLINK",
        "DELETELINK",
        "DELETECHAIN"
      ],
      "vertexType": "MolecularFragment"
    },
    {
      "lstAPs": [
        {
          "id": 16061350,
          "atomPositionNumber": 0,
          "atomPositionNumberInMol": -1,
          "apClass": {
            "rule": "bridge",
            "subClass": 0,
            "bndTyp": "SINGLE"
          },
          "dirVec": {
            "x": -1.0417,
            "y": -0.7693,
            "z": 0.07320000000000002
          }
        },
        {
          "id": 16061351,
          "atomPositionNumber": 0,
          "atomPositionNumberInMol": -1,
          "apClass": {
            "rule": "bridge",
            "subClass": 0,
            "bndTyp": "SINGLE"
          },
          "dirVec": {
            "x": 1.2664,
            "y": -1.9999999999997797E-4,
            "z": 0.2522
          }
        }
      ],
      "lstSymAPs": [
        {
          "symIds": [
            0,
            1
          ]
        }
      ],
      "mol": {
        "atoms": [
          {
            "elSymbol": "C",
            "p3d": {
              "x": 0.4112,
              "y": -1.2101,
              "z": -0.1993
            }
          },
          {
            "elSymbol": "H",
            "p3d": {
              "x": 0.6587,
              "y": -2.0933,
              "z": 0.3897
            }
          },
          {
            "elSymbol": "H",
            "p3d": {
              "x": 0.5577,
              "y": -1.4056,
              "z": -1.2616
            }
          }
        ],
        "bonds": [
          {
            "atomIds": [
              0,
              1
            ],
            "bo": "SINGLE"
          },
          {
            "atomIds": [
              0,
              2
            ],
            "bo": "SINGLE"
          }
        ]
      },
      "vertexId": 9595620,
      "buildingBlockId": 66,
      "buildingBlockType": "FRAGMENT",
      "isRCV": false,
      "properties": {
        "ATTACHMENT_POINTS": "1#bridge:0:SINGLE:-1.0417%-0.7693%0.0732,bridge:0:SINGLE:1.2664%-0.0002%0.2522 ",
        "OLDVERTEXID": 169192
      },
      "uniquefyingPropertyKeys": [],
      "allowedMutationTypes": [
        "DELETE",
        "EXTEND",
        "CHANGEBRANCH",
        "CHANGELINK",
        "ADDLINK",
        "DELETELINK",
        "DELETECHAIN"
      ],
      "vertexType": "MolecularFragment"
    },
    {
      "lstAPs": [
        {
          "id": 16061352,
          "atomPositionNumber": 0,
          "atomPositionNumberInMol": -1,
          "apClass": {
            "rule": "ATminus",
            "subClass": 0,
            "bndTyp": "ANY"
          },
          "dirVec": {
            "x": 0.0109,
            "y": -0.0071,
            "z": 0.0026
          }
        }
      ],
      "lstSymAPs": [],
      "mol": {
        "atoms": [
          {
            "elSymbol": "ATM",
            "p3d": {
              "x": -0.0096,
              "y": 0.0045,
              "z": -0.0011
            }
          }
        ],
        "bonds": []
      },
      "vertexId": 9595621,
      "buildingBlockId": 79,
      "buildingBlockType": "FRAGMENT",
      "isRCV": true,
      "properties": {
        "ATTACHMENT_POINTS": "1#ATminus:0:ANY:0.0109%-0.0071%0.0026 ",
        "OLDVERTEXID": 9595391
      },
      "uniquefyingPropertyKeys": [],
      "allowedMutationTypes": [
        "DELETE",
        "EXTEND",
        "CHANGEBRANCH",
        "CHANGELINK",
        "ADDLINK",
        "DELETELINK",
        "DELETECHAIN"
      ],
      "vertexType": "MolecularFragment"
    },
    {
      "lstAPs": [
        {
          "id": 16061353,
          "atomPositionNumber": 0,
          "atomPositionNumberInMol": -1,
          "apClass": {
            "rule": "ATminus",
            "subClass": 0,
            "bndTyp": "ANY"
          },
          "dirVec": {
            "x": 0.0109,
            "y": -0.0071,
            "z": 0.0026
          }
        }
      ],
      "lstSymAPs": [],
      "mol": {
        "atoms": [
          {
            "elSymbol": "ATM",
            "p3d": {
              "x": -0.0096,
              "y": 0.0045,
              "z": -0.0011
            }
          }
        ],
        "bonds": []
      },
      "vertexId": 9595622,
      "buildingBlockId": 79,
      "buildingBlockType": "FRAGMENT",
      "isRCV": true,
      "properties": {
        "ATTACHMENT_POINTS": "1#ATminus:0:ANY:0.0109%-0.0071%0.0026 ",
        "OLDVERTEXID": 9595393
      },
      "uniquefyingPropertyKeys": [],
      "allowedMutationTypes": [
        "DELETE",
        "EXTEND",
        "CHANGEBRANCH",
        "CHANGELINK",
        "ADDLINK",
        "DELETELINK",
        "DELETECHAIN"
      ],
      "vertexType": "MolecularFragment"
    }
  ],
  "gEdges": [
    {
      "srcAPID": 16061334,
      "trgAPID": 16061336,
      "bondType": "SINGLE"
    },
    {
      "srcAPID": 16061337,
      "trgAPID": 16061340,
      "bondType": "SINGLE"
    },
    {
      "srcAPID": 16061335,
      "trgAPID": 16061341,
      "bondType": "SINGLE"
    },
    {
      "srcAPID": 16061333,
      "trgAPID": 16061342,
      "bondType": "SINGLE"
    },
    {
      "srcAPID": 16061332,
      "trgAPID": 16061344,
      "bondType": "SINGLE"
    },
    {
      "srcAPID": 16061339,
      "trgAPID": 16061346,
      "bondType": "SINGLE"
    },
    {
      "srcAPID": 16061338,
      "trgAPID": 16061347,
      "bondType": "SINGLE"
    },
    {
      "srcAPID": 16061343,
      "trgAPID": 16061348,
      "bondType": "SINGLE"
    },
    {
      "srcAPID": 16061345,
      "trgAPID": 16061350,
      "bondType": "SINGLE"
    },
    {
      "srcAPID": 16061349,
      "trgAPID": 16061352,
      "bondType": "SINGLE"
    },
    {
      "srcAPID": 16061351,
      "trgAPID": 16061353,
      "bondType": "SINGLE"
    }
  ],
  "gRings": [
    {
      "vertices": [
        9595613,
        9595612,
        9595611,
        9595615,
        9595619,
        9595621
      ],
      "bndTyp": "SINGLE"
    },
    {
      "vertices": [
        9595614,
        9595612,
        9595611,
        9595616,
        9595620,
        9595622
      ],
      "bndTyp": "SINGLE"
    }
  ],
  "symVertices": [
    {
      "symIds": [
        9595613,
        9595614
      ]
    },
    {
      "symIds": [
        9595615,
        9595616
      ]
    },
    {
      "symIds": [
        9595617,
        9595618
      ]
    },
    {
      "symIds": [
        9595619,
        9595620
      ]
    },
    {
      "symIds": [
        9595621,
        9595622
      ]
    }
  ]
}

> <SMILES>
[Pt]12(C#O)[C]3N(C(C(N3C([H])([H])S1)([H])C(C([H])([H])[H])([H])[H])([H])C(C([H])([H])[H])([H])[H])C([H])([H])S2

$$$$
