M30020605
  CDK     05082200313D

 49 50  0  0  0  0  0  0  0  0999 V2000
   -0.8223   -0.3771    0.1295 Pt  0  0  0  0  0  0  0  0  0  0  0  0
   -2.7216   -0.3995    0.5749 C   0  0  0  0  0  0  0  0  0  0  0  0
   -3.8368   -0.3917    0.8186 O   0  0  0  0  0  0  0  0  0  0  0  0
    1.3653   -0.1271   -0.4335 P   0  0  0  0  0  0  0  0  0  0  0  0
    2.2524   -1.6281   -1.1038 C   0  0  0  0  0  0  0  0  0  0  0  0
    2.6198   -1.3340   -2.3567 C   0  0  0  0  0  0  0  0  0  0  0  0
    2.2619    0.0198   -2.8632 C   0  0  0  0  0  0  0  0  0  0  0  0
    1.6053    0.8250   -2.0213 C   0  0  0  0  0  0  0  0  0  0  0  0
    3.1514   -2.0111   -3.0230 H   0  0  0  0  0  0  0  0  0  0  0  0
    2.5446    0.2832   -3.8804 H   0  0  0  0  0  0  0  0  0  0  0  0
    2.3800    0.5981    0.9211 C   0  0  0  0  0  0  0  0  0  0  0  0
    3.9274    1.6774    2.9616 C   0  0  0  0  0  0  0  0  0  0  0  0
    2.9256   -0.2524    1.8865 C   0  0  0  0  0  0  0  0  0  0  0  0
    2.5870    1.9782    0.9625 C   0  0  0  0  0  0  0  0  0  0  0  0
    3.3680    2.5157    1.9930 C   0  0  0  0  0  0  0  0  0  0  0  0
    3.7046    0.2965    2.9107 C   0  0  0  0  0  0  0  0  0  0  0  0
    2.7612   -1.3327    1.8736 H   0  0  0  0  0  0  0  0  0  0  0  0
    2.1438    2.6611    0.2256 H   0  0  0  0  0  0  0  0  0  0  0  0
    3.5338    3.5927    2.0380 H   0  0  0  0  0  0  0  0  0  0  0  0
    4.1371   -0.3533    3.6711 H   0  0  0  0  0  0  0  0  0  0  0  0
    4.5367    2.1000    3.7614 H   0  0  0  0  0  0  0  0  0  0  0  0
    1.2156    1.8274   -2.1396 H   0  0  0  0  0  0  0  0  0  0  0  0
    2.3904   -2.5305   -0.5324 H   0  0  0  0  0  0  0  0  0  0  0  0
   -0.3930    1.6073   -0.2146 O   0  0  0  0  0  0  0  0  0  0  0  0
   -0.1499    3.6786    0.4553 O   0  0  0  0  0  0  0  0  0  0  0  0
   -0.5717    2.5720    0.7105 C   0  0  0  0  0  0  0  0  0  0  0  0
   -1.2413    2.1465    1.9965 C   0  0  0  0  0  0  0  0  0  0  0  0
   -2.6958    2.6356    2.0305 C   0  0  0  0  0  0  0  0  0  0  0  0
   -3.4122    2.1858    3.2987 C   0  0  0  0  0  0  0  0  0  0  0  0
   -1.1732    1.0487    2.1541 H   0  0  0  0  0  0  0  0  0  0  0  0
   -0.6802    2.5926    2.8486 H   0  0  0  0  0  0  0  0  0  0  0  0
   -2.7105    3.7450    1.9621 H   0  0  0  0  0  0  0  0  0  0  0  0
   -3.2422    2.2764    1.1362 H   0  0  0  0  0  0  0  0  0  0  0  0
   -2.9175    2.5654    4.2012 H   0  0  0  0  0  0  0  0  0  0  0  0
   -4.4455    2.5549    3.3192 H   0  0  0  0  0  0  0  0  0  0  0  0
   -3.4552    1.0942    3.3855 H   0  0  0  0  0  0  0  0  0  0  0  0
   -0.9252   -2.3926    0.4316 O   0  0  0  0  0  0  0  0  0  0  0  0
   -0.8791   -4.4020   -0.4563 O   0  0  0  0  0  0  0  0  0  0  0  0
   -0.9760   -3.2116   -0.6439 C   0  0  0  0  0  0  0  0  0  0  0  0
   -1.1436   -2.5287   -1.9863 C   0  0  0  0  0  0  0  0  0  0  0  0
   -2.0408   -3.3712   -2.9059 C   0  0  0  0  0  0  0  0  0  0  0  0
   -2.1322   -2.7769   -4.3067 C   0  0  0  0  0  0  0  0  0  0  0  0
   -1.5580   -1.5002   -1.8855 H   0  0  0  0  0  0  0  0  0  0  0  0
   -0.1409   -2.4130   -2.4515 H   0  0  0  0  0  0  0  0  0  0  0  0
   -1.6466   -4.4095   -2.9534 H   0  0  0  0  0  0  0  0  0  0  0  0
   -3.0531   -3.4597   -2.4631 H   0  0  0  0  0  0  0  0  0  0  0  0
   -1.1517   -2.7258   -4.7934 H   0  0  0  0  0  0  0  0  0  0  0  0
   -2.7805   -3.3864   -4.9487 H   0  0  0  0  0  0  0  0  0  0  0  0
   -2.5481   -1.7630   -4.2949 H   0  0  0  0  0  0  0  0  0  0  0  0
  2  3  3  0  0  0  0
  1  2  1  0  0  0  0
  5  4  1  0  0  0  0
  6  5  2  0  0  0  0
  7  6  1  0  0  0  0
  7  8  2  0  0  0  0
  8  4  1  0  0  0  0
  6  9  1  0  0  0  0
  7 10  1  0  0  0  0
  1  4  1  0  0  0  0
 11 14  1  0  0  0  0
 14 15  2  0  0  0  0
 12 15  1  0  0  0  0
 12 16  2  0  0  0  0
 13 16  1  0  0  0  0
 11 13  2  0  0  0  0
 15 19  1  0  0  0  0
 16 20  1  0  0  0  0
 12 21  1  0  0  0  0
 13 17  1  0  0  0  0
 14 18  1  0  0  0  0
  4 11  1  0  0  0  0
  8 22  1  0  0  0  0
  5 23  1  0  0  0  0
 25 26  2  0  0  0  0
 26 24  1  0  0  0  0
  1 24  1  0  0  0  0
 27 28  1  0  0  0  0
 28 29  1  0  0  0  0
 27 30  1  0  0  0  0
 27 31  1  0  0  0  0
 28 32  1  0  0  0  0
 28 33  1  0  0  0  0
 29 34  1  0  0  0  0
 29 35  1  0  0  0  0
 26 27  1  0  0  0  0
 29 36  1  0  0  0  0
 38 39  2  0  0  0  0
 39 37  1  0  0  0  0
  1 37  1  0  0  0  0
 40 41  1  0  0  0  0
 41 42  1  0  0  0  0
 40 43  1  0  0  0  0
 40 44  1  0  0  0  0
 41 45  1  0  0  0  0
 41 46  1  0  0  0  0
 42 47  1  0  0  0  0
 42 48  1  0  0  0  0
 39 40  1  0  0  0  0
 42 49  1  0  0  0  0
M  END
> <PM6_ENERGY>
-613.633

> <UID>
PQVZPSLVUQVRQZ-RPSVACTGNA-L

> <FITNESS>
1.14154

> <GCODE>
58267

> <GraphENC>
58267 193_1_0,194_48_1,195_79_1,196_79_1,2046_76_1,2055_29_1,2467_76_1,28773_65_1,28790_65_1,2805345_80_1,2805347_80_1, 193_2_194_1_SINGLE_scaff:0_MPhosphole:1,194_3_195_0_SINGLE_LPhospholeSubAlpha:0_ATplus:0,194_2_196_0_SINGLE_LPhospholeSubAlpha:0_ATplus:0,193_0_2046_0_SINGLE_Xlig:0_Xlig:1,194_0_2055_0_SINGLE_LPhospholeSubR:0_SubArS:1,193_1_2467_0_SINGLE_Xlig:0_Xlig:1,2046_1_28773_0_SINGLE_bridge:1_bridge:0,2467_1_28790_0_SINGLE_bridge:1_bridge:0,28773_1_2805345_0_SINGLE_bridge:0_ATminus:0,28790_1_2805347_0_SINGLE_bridge:0_ATminus:0, SymmetricSet [symIds=[195, 196]] SymmetricSet [symIds=[2046, 2467]] SymmetricSet [symIds=[28773, 28790]] SymmetricSet [symIds=[2805345, 2805347]] 

> <GraphJson>
{
  "graphId": 58267,
  "gVertices": [
    {
      "lstAPs": [
        {
          "id": 4618494,
          "atomPositionNumber": 0,
          "atomPositionNumberInMol": 0,
          "apClass": {
            "rule": "Xlig",
            "subClass": 0,
            "bndTyp": "SINGLE"
          },
          "dirVec": {
            "x": -2.3339,
            "y": -0.0087,
            "z": 0.8172
          }
        },
        {
          "id": 4618495,
          "atomPositionNumber": 0,
          "atomPositionNumberInMol": 0,
          "apClass": {
            "rule": "Xlig",
            "subClass": 0,
            "bndTyp": "SINGLE"
          },
          "dirVec": {
            "x": 2.336,
            "y": -5.0E-4,
            "z": 0.829
          }
        },
        {
          "id": 4618496,
          "atomPositionNumber": 0,
          "atomPositionNumberInMol": 0,
          "apClass": {
            "rule": "scaff",
            "subClass": 0,
            "bndTyp": "SINGLE"
          },
          "dirVec": {
            "x": -0.0095,
            "y": 0.0046,
            "z": -1.7113
          }
        }
      ],
      "lstSymAPs": [
        {
          "symIds": [
            0,
            1
          ]
        }
      ],
      "mol": {
        "atoms": [
          {
            "elSymbol": "Pt",
            "p3d": {
              "x": -0.0098,
              "y": 0.0049,
              "z": 0.6289
            }
          },
          {
            "elSymbol": "C",
            "p3d": {
              "x": -6.0E-4,
              "y": 0.0016,
              "z": 2.5609
            }
          },
          {
            "elSymbol": "O",
            "p3d": {
              "x": 0.0025,
              "y": -0.0041,
              "z": 3.6974
            }
          },
          {
            "elSymbol": "Du",
            "p3d": {
              "x": -0.007,
              "y": 1.0013,
              "z": 0.6372
            }
          },
          {
            "elSymbol": "Du",
            "p3d": {
              "x": -0.0014,
              "y": 0.9902,
              "z": 2.5698
            }
          }
        ],
        "bonds": [
          {
            "atomIds": [
              1,
              2
            ],
            "bo": "TRIPLE"
          },
          {
            "atomIds": [
              0,
              1
            ],
            "bo": "SINGLE"
          },
          {
            "atomIds": [
              3,
              0
            ],
            "bo": "SINGLE"
          },
          {
            "atomIds": [
              4,
              1
            ],
            "bo": "SINGLE"
          }
        ]
      },
      "vertexId": 193,
      "buildingBlockId": 0,
      "buildingBlockType": "SCAFFOLD",
      "isRCV": false,
      "properties": {
        "ATTACHMENT_POINTS": "1#Xlig:0:SINGLE:-2.3339%-0.0087%0.8172,Xlig:0:SINGLE:2.3360%-0.0005%0.8290,scaff:0:SINGLE:-0.0095%0.0046%-1.7113 "
      },
      "uniquefyingPropertyKeys": [],
      "allowedMutationTypes": [
        "DELETE",
        "EXTEND",
        "CHANGEBRANCH",
        "CHANGELINK",
        "ADDLINK",
        "DELETELINK",
        "DELETECHAIN"
      ],
      "vertexType": "MolecularFragment"
    },
    {
      "lstAPs": [
        {
          "id": 4618497,
          "atomPositionNumber": 0,
          "atomPositionNumberInMol": 5,
          "apClass": {
            "rule": "LPhospholeSubR",
            "subClass": 0,
            "bndTyp": "SINGLE"
          },
          "dirVec": {
            "x": 1.5894695221251027,
            "y": -0.22647507787298762,
            "z": -2.5403412806055052
          }
        },
        {
          "id": 4618498,
          "atomPositionNumber": 0,
          "atomPositionNumberInMol": 5,
          "apClass": {
            "rule": "MPhosphole",
            "subClass": 1,
            "bndTyp": "SINGLE"
          },
          "dirVec": {
            "x": -0.00979843638917681,
            "y": 0.00489843638917665,
            "z": 0.6167027931710318
          }
        },
        {
          "id": 4618499,
          "atomPositionNumber": 1,
          "atomPositionNumberInMol": 6,
          "apClass": {
            "rule": "LPhospholeSubAlpha",
            "subClass": 0,
            "bndTyp": "SINGLE"
          },
          "dirVec": {
            "x": -1.247747240951509,
            "y": -2.5654540058913766,
            "z": -2.537691072493987
          }
        },
        {
          "id": 4618500,
          "atomPositionNumber": 4,
          "atomPositionNumberInMol": 9,
          "apClass": {
            "rule": "LPhospholeSubAlpha",
            "subClass": 0,
            "bndTyp": "SINGLE"
          },
          "dirVec": {
            "x": -0.30790923671386095,
            "y": 2.9691196160259756,
            "z": -2.0438327128732703
          }
        }
      ],
      "lstSymAPs": [
        {
          "symIds": [
            2,
            3
          ]
        }
      ],
      "mol": {
        "atoms": [
          {
            "elSymbol": "P",
            "p3d": {
              "x": -0.009501563610823188,
              "y": 0.00460156361082335,
              "z": -1.6991027931710323
            }
          },
          {
            "elSymbol": "C",
            "p3d": {
              "x": -1.1878504094745181,
              "y": -1.053908140033033,
              "z": -2.605846739797364
            }
          },
          {
            "elSymbol": "C",
            "p3d": {
              "x": -1.94625229218355,
              "y": -0.25710823894232065,
              "z": -3.3375765478038635
            }
          },
          {
            "elSymbol": "C",
            "p3d": {
              "x": -1.6650510209052938,
              "y": 1.186522454492756,
              "z": -3.2249618240611233
            }
          },
          {
            "elSymbol": "C",
            "p3d": {
              "x": -0.7253388184579733,
              "y": 1.556006149283925,
              "z": -2.4003663499921255
            }
          },
          {
            "elSymbol": "H",
            "p3d": {
              "x": -2.7100366647175433,
              "y": -0.7233077954963977,
              "z": -3.938878065963961
            }
          },
          {
            "elSymbol": "H",
            "p3d": {
              "x": -2.1614501712183682,
              "y": 2.0012282110518838,
              "z": -3.749352083121948
            }
          }
        ],
        "bonds": [
          {
            "atomIds": [
              1,
              0
            ],
            "bo": "SINGLE"
          },
          {
            "atomIds": [
              2,
              1
            ],
            "bo": "DOUBLE"
          },
          {
            "atomIds": [
              3,
              2
            ],
            "bo": "SINGLE"
          },
          {
            "atomIds": [
              3,
              4
            ],
            "bo": "DOUBLE"
          },
          {
            "atomIds": [
              4,
              0
            ],
            "bo": "SINGLE"
          },
          {
            "atomIds": [
              2,
              5
            ],
            "bo": "SINGLE"
          },
          {
            "atomIds": [
              3,
              6
            ],
            "bo": "SINGLE"
          }
        ]
      },
      "vertexId": 194,
      "buildingBlockId": 47,
      "buildingBlockType": "FRAGMENT",
      "isRCV": false,
      "properties": {
        "ATTACHMENT_POINTS": "1#LPhospholeSubR:0:SINGLE:1.5895%-0.2265%-2.5403,MPhosphole:1:SINGLE:-0.0098%0.0049%0.6167 2#LPhospholeSubAlpha:0:SINGLE:-1.2477%-2.5655%-2.5377 5#LPhospholeSubAlpha:0:SINGLE:-0.3079%2.9691%-2.0438 "
      },
      "uniquefyingPropertyKeys": [],
      "allowedMutationTypes": [
        "DELETE",
        "EXTEND",
        "CHANGEBRANCH",
        "CHANGELINK",
        "ADDLINK",
        "DELETELINK",
        "DELETECHAIN"
      ],
      "vertexType": "MolecularFragment"
    },
    {
      "lstAPs": [
        {
          "id": 4618501,
          "atomPositionNumber": 0,
          "atomPositionNumberInMol": 12,
          "apClass": {
            "rule": "ATplus",
            "subClass": 0,
            "bndTyp": "ANY"
          },
          "dirVec": {
            "x": -0.30790923671386095,
            "y": 2.9691196160259756,
            "z": -2.0438327128732703
          }
        }
      ],
      "lstSymAPs": [],
      "mol": {
        "atoms": [
          {
            "elSymbol": "ATP",
            "p3d": {
              "x": -0.30212906136304096,
              "y": 2.9886870927588087,
              "z": -2.0388957677425443
            }
          }
        ],
        "bonds": []
      },
      "vertexId": 195,
      "buildingBlockId": 78,
      "buildingBlockType": "FRAGMENT",
      "isRCV": true,
      "properties": {
        "ATTACHMENT_POINTS": "1#ATplus:0:ANY:-0.3079%2.9691%-2.0438 "
      },
      "uniquefyingPropertyKeys": [],
      "allowedMutationTypes": [
        "DELETE",
        "EXTEND",
        "CHANGEBRANCH",
        "CHANGELINK",
        "ADDLINK",
        "DELETELINK",
        "DELETECHAIN"
      ],
      "vertexType": "MolecularFragment"
    },
    {
      "lstAPs": [
        {
          "id": 4618502,
          "atomPositionNumber": 0,
          "atomPositionNumberInMol": 13,
          "apClass": {
            "rule": "ATplus",
            "subClass": 0,
            "bndTyp": "ANY"
          },
          "dirVec": {
            "x": -1.247747240951509,
            "y": -2.5654540058913766,
            "z": -2.537691072493987
          }
        }
      ],
      "lstSymAPs": [],
      "mol": {
        "atoms": [
          {
            "elSymbol": "ATP",
            "p3d": {
              "x": -1.248577585256087,
              "y": -2.5864084281850874,
              "z": -2.536746236702601
            }
          }
        ],
        "bonds": []
      },
      "vertexId": 196,
      "buildingBlockId": 78,
      "buildingBlockType": "FRAGMENT",
      "isRCV": true,
      "properties": {
        "ATTACHMENT_POINTS": "1#ATplus:0:ANY:-1.2477%-2.5655%-2.5377 "
      },
      "uniquefyingPropertyKeys": [],
      "allowedMutationTypes": [
        "DELETE",
        "EXTEND",
        "CHANGEBRANCH",
        "CHANGELINK",
        "ADDLINK",
        "DELETELINK",
        "DELETECHAIN"
      ],
      "vertexType": "MolecularFragment"
    },
    {
      "lstAPs": [
        {
          "id": 4618503,
          "atomPositionNumber": 0,
          "atomPositionNumberInMol": 25,
          "apClass": {
            "rule": "Xlig",
            "subClass": 1,
            "bndTyp": "SINGLE"
          },
          "dirVec": {
            "x": 2.9612,
            "y": 0.482,
            "z": 3.1597
          }
        },
        {
          "id": 4618504,
          "atomPositionNumber": 2,
          "atomPositionNumberInMol": 27,
          "apClass": {
            "rule": "bridge",
            "subClass": 1,
            "bndTyp": "SINGLE"
          },
          "dirVec": {
            "x": 0.31479999999999997,
            "y": 0.7222,
            "z": 2.0817
          }
        }
      ],
      "lstSymAPs": [],
      "mol": {
        "atoms": [
          {
            "elSymbol": "O",
            "p3d": {
              "x": 2.5349,
              "y": 1.3185,
              "z": 1.3621
            }
          },
          {
            "elSymbol": "O",
            "p3d": {
              "x": 0.8537,
              "y": 1.7439,
              "z": 0.0154
            }
          },
          {
            "elSymbol": "C",
            "p3d": {
              "x": 1.2704,
              "y": 1.2787,
              "z": 1.0674
            }
          }
        ],
        "bonds": [
          {
            "atomIds": [
              1,
              2
            ],
            "bo": "DOUBLE"
          },
          {
            "atomIds": [
              2,
              0
            ],
            "bo": "SINGLE"
          }
        ]
      },
      "vertexId": 2046,
      "buildingBlockId": 75,
      "buildingBlockType": "FRAGMENT",
      "isRCV": false,
      "properties": {
        "ATTACHMENT_POINTS": "1#Xlig:1:SINGLE:2.9612%0.4820%3.1597 3#bridge:1:SINGLE:0.3148%0.7222%2.0817 "
      },
      "uniquefyingPropertyKeys": [],
      "allowedMutationTypes": [
        "DELETE",
        "EXTEND",
        "CHANGEBRANCH",
        "CHANGELINK",
        "ADDLINK",
        "DELETELINK",
        "DELETECHAIN"
      ],
      "vertexType": "MolecularFragment"
    },
    {
      "lstAPs": [
        {
          "id": 4618505,
          "atomPositionNumber": 0,
          "atomPositionNumberInMol": 14,
          "apClass": {
            "rule": "SubArS",
            "subClass": 1,
            "bndTyp": "SINGLE"
          },
          "dirVec": {
            "x": 0.2973,
            "y": 0.3873,
            "z": -0.6389
          }
        }
      ],
      "lstSymAPs": [],
      "mol": {
        "atoms": [
          {
            "elSymbol": "C",
            "p3d": {
              "x": 1.6995,
              "y": 0.5593,
              "z": -1.2083
            }
          },
          {
            "elSymbol": "C",
            "p3d": {
              "x": 4.2563,
              "y": 0.8754,
              "z": -2.2592
            }
          },
          {
            "elSymbol": "C",
            "p3d": {
              "x": 2.3334,
              "y": 1.79,
              "z": -1.1338
            }
          },
          {
            "elSymbol": "C",
            "p3d": {
              "x": 2.3422,
              "y": -0.5107,
              "z": -1.8125
            }
          },
          {
            "elSymbol": "C",
            "p3d": {
              "x": 3.612,
              "y": -0.3527,
              "z": -2.3321
            }
          },
          {
            "elSymbol": "C",
            "p3d": {
              "x": 3.6062,
              "y": 1.9513,
              "z": -1.6526
            }
          },
          {
            "elSymbol": "H",
            "p3d": {
              "x": 1.833,
              "y": 2.6461,
              "z": -0.6488
            }
          },
          {
            "elSymbol": "H",
            "p3d": {
              "x": 1.8361,
              "y": -1.4773,
              "z": -1.887
            }
          },
          {
            "elSymbol": "H",
            "p3d": {
              "x": 4.115,
              "y": -1.2043,
              "z": -2.8152
            }
          },
          {
            "elSymbol": "H",
            "p3d": {
              "x": 4.1097,
              "y": 2.9214,
              "z": -1.5842
            }
          },
          {
            "elSymbol": "H",
            "p3d": {
              "x": 5.2498,
              "y": 0.9926,
              "z": -2.665
            }
          }
        ],
        "bonds": [
          {
            "atomIds": [
              0,
              3
            ],
            "bo": "SINGLE"
          },
          {
            "atomIds": [
              3,
              4
            ],
            "bo": "DOUBLE"
          },
          {
            "atomIds": [
              1,
              4
            ],
            "bo": "SINGLE"
          },
          {
            "atomIds": [
              1,
              5
            ],
            "bo": "DOUBLE"
          },
          {
            "atomIds": [
              2,
              5
            ],
            "bo": "SINGLE"
          },
          {
            "atomIds": [
              0,
              2
            ],
            "bo": "DOUBLE"
          },
          {
            "atomIds": [
              4,
              8
            ],
            "bo": "SINGLE"
          },
          {
            "atomIds": [
              5,
              9
            ],
            "bo": "SINGLE"
          },
          {
            "atomIds": [
              1,
              10
            ],
            "bo": "SINGLE"
          },
          {
            "atomIds": [
              2,
              6
            ],
            "bo": "SINGLE"
          },
          {
            "atomIds": [
              3,
              7
            ],
            "bo": "SINGLE"
          }
        ]
      },
      "vertexId": 2055,
      "buildingBlockId": 28,
      "buildingBlockType": "FRAGMENT",
      "isRCV": false,
      "properties": {
        "ATTACHMENT_POINTS": "1#SubArS:1:SINGLE:0.2973%0.3873%-0.6389 "
      },
      "uniquefyingPropertyKeys": [],
      "allowedMutationTypes": [
        "DELETE",
        "EXTEND",
        "CHANGEBRANCH",
        "CHANGELINK",
        "ADDLINK",
        "DELETELINK",
        "DELETECHAIN"
      ],
      "vertexType": "MolecularFragment"
    },
    {
      "lstAPs": [
        {
          "id": 4618506,
          "atomPositionNumber": 0,
          "atomPositionNumberInMol": 38,
          "apClass": {
            "rule": "Xlig",
            "subClass": 1,
            "bndTyp": "SINGLE"
          },
          "dirVec": {
            "x": 2.9612,
            "y": 0.482,
            "z": 3.1597
          }
        },
        {
          "id": 4618507,
          "atomPositionNumber": 2,
          "atomPositionNumberInMol": 40,
          "apClass": {
            "rule": "bridge",
            "subClass": 1,
            "bndTyp": "SINGLE"
          },
          "dirVec": {
            "x": 0.31479999999999997,
            "y": 0.7222,
            "z": 2.0817
          }
        }
      ],
      "lstSymAPs": [],
      "mol": {
        "atoms": [
          {
            "elSymbol": "O",
            "p3d": {
              "x": 2.5349,
              "y": 1.3185,
              "z": 1.3621
            }
          },
          {
            "elSymbol": "O",
            "p3d": {
              "x": 0.8537,
              "y": 1.7439,
              "z": 0.0154
            }
          },
          {
            "elSymbol": "C",
            "p3d": {
              "x": 1.2704,
              "y": 1.2787,
              "z": 1.0674
            }
          }
        ],
        "bonds": [
          {
            "atomIds": [
              1,
              2
            ],
            "bo": "DOUBLE"
          },
          {
            "atomIds": [
              2,
              0
            ],
            "bo": "SINGLE"
          }
        ]
      },
      "vertexId": 2467,
      "buildingBlockId": 75,
      "buildingBlockType": "FRAGMENT",
      "isRCV": false,
      "properties": {
        "ATTACHMENT_POINTS": "1#Xlig:1:SINGLE:2.9612%0.4820%3.1597 3#bridge:1:SINGLE:0.3148%0.7222%2.0817 "
      },
      "uniquefyingPropertyKeys": [],
      "allowedMutationTypes": [
        "DELETE",
        "EXTEND",
        "CHANGEBRANCH",
        "CHANGELINK",
        "ADDLINK",
        "DELETELINK",
        "DELETECHAIN"
      ],
      "vertexType": "MolecularFragment"
    },
    {
      "lstAPs": [
        {
          "id": 4618508,
          "atomPositionNumber": 0,
          "atomPositionNumberInMol": 28,
          "apClass": {
            "rule": "bridge",
            "subClass": 0,
            "bndTyp": "SINGLE"
          },
          "dirVec": {
            "x": -1.2321,
            "y": -0.7501,
            "z": -0.255
          }
        },
        {
          "id": 4618509,
          "atomPositionNumber": 2,
          "atomPositionNumberInMol": 30,
          "apClass": {
            "rule": "bridge",
            "subClass": 0,
            "bndTyp": "SINGLE"
          },
          "dirVec": {
            "x": 1.2657,
            "y": -0.692,
            "z": -0.255
          }
        }
      ],
      "lstSymAPs": [
        {
          "symIds": [
            0,
            1
          ]
        }
      ],
      "mol": {
        "atoms": [
          {
            "elSymbol": "C",
            "p3d": {
              "x": -1.2657,
              "y": 0.692,
              "z": 0.255
            }
          },
          {
            "elSymbol": "C",
            "p3d": {
              "x": -0.0335,
              "y": 1.4421,
              "z": -0.255
            }
          },
          {
            "elSymbol": "C",
            "p3d": {
              "x": 1.2321,
              "y": 0.7501,
              "z": 0.255
            }
          },
          {
            "elSymbol": "H",
            "p3d": {
              "x": -2.1673,
              "y": 1.1851,
              "z": -0.1083
            }
          },
          {
            "elSymbol": "H",
            "p3d": {
              "x": -1.2657,
              "y": 0.692,
              "z": 1.345
            }
          },
          {
            "elSymbol": "H",
            "p3d": {
              "x": -0.0335,
              "y": 1.4421,
              "z": -1.345
            }
          },
          {
            "elSymbol": "H",
            "p3d": {
              "x": -0.0574,
              "y": 2.4695,
              "z": 0.1083
            }
          },
          {
            "elSymbol": "H",
            "p3d": {
              "x": 2.11,
              "y": 1.2844,
              "z": -0.1083
            }
          },
          {
            "elSymbol": "H",
            "p3d": {
              "x": 1.2321,
              "y": 0.7501,
              "z": 1.345
            }
          }
        ],
        "bonds": [
          {
            "atomIds": [
              0,
              1
            ],
            "bo": "SINGLE"
          },
          {
            "atomIds": [
              1,
              2
            ],
            "bo": "SINGLE"
          },
          {
            "atomIds": [
              0,
              3
            ],
            "bo": "SINGLE"
          },
          {
            "atomIds": [
              0,
              4
            ],
            "bo": "SINGLE"
          },
          {
            "atomIds": [
              1,
              5
            ],
            "bo": "SINGLE"
          },
          {
            "atomIds": [
              1,
              6
            ],
            "bo": "SINGLE"
          },
          {
            "atomIds": [
              2,
              7
            ],
            "bo": "SINGLE"
          },
          {
            "atomIds": [
              2,
              8
            ],
            "bo": "SINGLE"
          }
        ]
      },
      "vertexId": 28773,
      "buildingBlockId": 64,
      "buildingBlockType": "FRAGMENT",
      "isRCV": false,
      "properties": {
        "ATTACHMENT_POINTS": "1#bridge:0:SINGLE:-1.2321%-0.7501%-0.2550 3#bridge:0:SINGLE:1.2657%-0.6920%-0.2550 "
      },
      "uniquefyingPropertyKeys": [],
      "allowedMutationTypes": [
        "DELETE",
        "EXTEND",
        "CHANGEBRANCH",
        "CHANGELINK",
        "ADDLINK",
        "DELETELINK",
        "DELETECHAIN"
      ],
      "vertexType": "MolecularFragment"
    },
    {
      "lstAPs": [
        {
          "id": 4618510,
          "atomPositionNumber": 0,
          "atomPositionNumberInMol": 41,
          "apClass": {
            "rule": "bridge",
            "subClass": 0,
            "bndTyp": "SINGLE"
          },
          "dirVec": {
            "x": -1.2321,
            "y": -0.7501,
            "z": -0.255
          }
        },
        {
          "id": 4618511,
          "atomPositionNumber": 2,
          "atomPositionNumberInMol": 43,
          "apClass": {
            "rule": "bridge",
            "subClass": 0,
            "bndTyp": "SINGLE"
          },
          "dirVec": {
            "x": 1.2657,
            "y": -0.692,
            "z": -0.255
          }
        }
      ],
      "lstSymAPs": [
        {
          "symIds": [
            0,
            1
          ]
        }
      ],
      "mol": {
        "atoms": [
          {
            "elSymbol": "C",
            "p3d": {
              "x": -1.2657,
              "y": 0.692,
              "z": 0.255
            }
          },
          {
            "elSymbol": "C",
            "p3d": {
              "x": -0.0335,
              "y": 1.4421,
              "z": -0.255
            }
          },
          {
            "elSymbol": "C",
            "p3d": {
              "x": 1.2321,
              "y": 0.7501,
              "z": 0.255
            }
          },
          {
            "elSymbol": "H",
            "p3d": {
              "x": -2.1673,
              "y": 1.1851,
              "z": -0.1083
            }
          },
          {
            "elSymbol": "H",
            "p3d": {
              "x": -1.2657,
              "y": 0.692,
              "z": 1.345
            }
          },
          {
            "elSymbol": "H",
            "p3d": {
              "x": -0.0335,
              "y": 1.4421,
              "z": -1.345
            }
          },
          {
            "elSymbol": "H",
            "p3d": {
              "x": -0.0574,
              "y": 2.4695,
              "z": 0.1083
            }
          },
          {
            "elSymbol": "H",
            "p3d": {
              "x": 2.11,
              "y": 1.2844,
              "z": -0.1083
            }
          },
          {
            "elSymbol": "H",
            "p3d": {
              "x": 1.2321,
              "y": 0.7501,
              "z": 1.345
            }
          }
        ],
        "bonds": [
          {
            "atomIds": [
              0,
              1
            ],
            "bo": "SINGLE"
          },
          {
            "atomIds": [
              1,
              2
            ],
            "bo": "SINGLE"
          },
          {
            "atomIds": [
              0,
              3
            ],
            "bo": "SINGLE"
          },
          {
            "atomIds": [
              0,
              4
            ],
            "bo": "SINGLE"
          },
          {
            "atomIds": [
              1,
              5
            ],
            "bo": "SINGLE"
          },
          {
            "atomIds": [
              1,
              6
            ],
            "bo": "SINGLE"
          },
          {
            "atomIds": [
              2,
              7
            ],
            "bo": "SINGLE"
          },
          {
            "atomIds": [
              2,
              8
            ],
            "bo": "SINGLE"
          }
        ]
      },
      "vertexId": 28790,
      "buildingBlockId": 64,
      "buildingBlockType": "FRAGMENT",
      "isRCV": false,
      "properties": {
        "ATTACHMENT_POINTS": "1#bridge:0:SINGLE:-1.2321%-0.7501%-0.2550 3#bridge:0:SINGLE:1.2657%-0.6920%-0.2550 "
      },
      "uniquefyingPropertyKeys": [],
      "allowedMutationTypes": [
        "DELETE",
        "EXTEND",
        "CHANGEBRANCH",
        "CHANGELINK",
        "ADDLINK",
        "DELETELINK",
        "DELETECHAIN"
      ],
      "vertexType": "MolecularFragment"
    },
    {
      "lstAPs": [
        {
          "id": 4618829,
          "atomPositionNumber": 0,
          "atomPositionNumberInMol": 37,
          "apClass": {
            "rule": "ATminus",
            "subClass": 0,
            "bndTyp": "ANY"
          },
          "dirVec": {
            "x": 0.0109,
            "y": -0.0071,
            "z": 0.0026
          }
        }
      ],
      "lstSymAPs": [],
      "mol": {
        "atoms": [
          {
            "elSymbol": "ATM",
            "p3d": {
              "x": -0.0096,
              "y": 0.0045,
              "z": -0.0011
            }
          }
        ],
        "bonds": []
      },
      "vertexId": 2805345,
      "buildingBlockId": 79,
      "buildingBlockType": "FRAGMENT",
      "isRCV": true,
      "properties": {
        "ATTACHMENT_POINTS": "1#ATminus:0:ANY:0.0109%-0.0071%0.0026 "
      },
      "uniquefyingPropertyKeys": [],
      "allowedMutationTypes": [
        "DELETE",
        "EXTEND",
        "CHANGEBRANCH",
        "CHANGELINK",
        "ADDLINK",
        "DELETELINK",
        "DELETECHAIN"
      ],
      "vertexType": "MolecularFragment"
    },
    {
      "lstAPs": [
        {
          "id": 4618830,
          "atomPositionNumber": 0,
          "atomPositionNumberInMol": 50,
          "apClass": {
            "rule": "ATminus",
            "subClass": 0,
            "bndTyp": "ANY"
          },
          "dirVec": {
            "x": 0.0109,
            "y": -0.0071,
            "z": 0.0026
          }
        }
      ],
      "lstSymAPs": [],
      "mol": {
        "atoms": [
          {
            "elSymbol": "ATM",
            "p3d": {
              "x": -0.0096,
              "y": 0.0045,
              "z": -0.0011
            }
          }
        ],
        "bonds": []
      },
      "vertexId": 2805347,
      "buildingBlockId": 79,
      "buildingBlockType": "FRAGMENT",
      "isRCV": true,
      "properties": {
        "ATTACHMENT_POINTS": "1#ATminus:0:ANY:0.0109%-0.0071%0.0026 "
      },
      "uniquefyingPropertyKeys": [],
      "allowedMutationTypes": [
        "DELETE",
        "EXTEND",
        "CHANGEBRANCH",
        "CHANGELINK",
        "ADDLINK",
        "DELETELINK",
        "DELETECHAIN"
      ],
      "vertexType": "MolecularFragment"
    }
  ],
  "gEdges": [
    {
      "srcAPID": 4618496,
      "trgAPID": 4618498,
      "bondType": "SINGLE"
    },
    {
      "srcAPID": 4618500,
      "trgAPID": 4618501,
      "bondType": "SINGLE"
    },
    {
      "srcAPID": 4618499,
      "trgAPID": 4618502,
      "bondType": "SINGLE"
    },
    {
      "srcAPID": 4618494,
      "trgAPID": 4618503,
      "bondType": "SINGLE"
    },
    {
      "srcAPID": 4618497,
      "trgAPID": 4618505,
      "bondType": "SINGLE"
    },
    {
      "srcAPID": 4618495,
      "trgAPID": 4618506,
      "bondType": "SINGLE"
    },
    {
      "srcAPID": 4618504,
      "trgAPID": 4618508,
      "bondType": "SINGLE"
    },
    {
      "srcAPID": 4618507,
      "trgAPID": 4618510,
      "bondType": "SINGLE"
    },
    {
      "srcAPID": 4618509,
      "trgAPID": 4618829,
      "bondType": "SINGLE"
    },
    {
      "srcAPID": 4618511,
      "trgAPID": 4618830,
      "bondType": "SINGLE"
    }
  ],
  "gRings": [],
  "symVertices": [
    {
      "symIds": [
        195,
        196
      ]
    },
    {
      "symIds": [
        2046,
        2467
      ]
    },
    {
      "symIds": [
        28773,
        28790
      ]
    },
    {
      "symIds": [
        2805345,
        2805347
      ]
    }
  ]
}

> <SMILES>
[Pt](C#O)([P]1(C(=C(C(=C1[H])[H])[H])[H])C=2C(=C(C(=C(C2[H])[H])[H])[H])[H])(OC(=O)C(C(C([H])([H])[H])([H])[H])([H])[H])OC(=O)C(C(C([H])([H])[H])([H])[H])([H])[H]

$$$$
