M30013120
  CDK     05072223553D

 45 46  0  0  0  0  0  0  0  0999 V2000
   -2.3367    0.1850   -0.6377 Pt  0  0  0  0  0  0  0  0  0  0  0  0
   -4.3154    0.2067   -0.5695 C   0  0  0  0  0  0  0  0  0  0  0  0
   -5.4538    0.2187   -0.5318 O   0  0  0  0  0  0  0  0  0  0  0  0
   -0.0707    0.1165   -0.7463 P   0  0  0  0  0  0  0  0  0  0  0  0
    0.6096   -0.1516    0.8101 N   0  0  0  0  0  0  0  0  0  0  0  0
   -0.4110   -0.1295    3.0880 C   0  0  0  0  0  0  0  0  0  0  0  0
   -0.2573   -0.9072    1.7782 C   0  0  0  0  0  0  0  0  0  0  0  0
    0.3294   -2.3067    2.0145 C   0  0  0  0  0  0  0  0  0  0  0  0
    0.3938   -2.8790    1.0757 H   0  0  0  0  0  0  0  0  0  0  0  0
   -0.3058   -2.8807    2.7012 H   0  0  0  0  0  0  0  0  0  0  0  0
    1.3328   -2.2728    2.4506 H   0  0  0  0  0  0  0  0  0  0  0  0
   -1.1505   -0.6073    3.7416 H   0  0  0  0  0  0  0  0  0  0  0  0
    0.5235   -0.0543    3.6531 H   0  0  0  0  0  0  0  0  0  0  0  0
   -0.7593    0.8977    2.9009 H   0  0  0  0  0  0  0  0  0  0  0  0
   -1.2945   -1.0312    1.3306 H   0  0  0  0  0  0  0  0  0  0  0  0
    1.9882    1.8423    1.4361 C   0  0  0  0  0  0  0  0  0  0  0  0
    1.9549    0.3224    1.2492 C   0  0  0  0  0  0  0  0  0  0  0  0
    3.0724   -0.1512    0.3064 C   0  0  0  0  0  0  0  0  0  0  0  0
    3.0053   -1.2266    0.1062 H   0  0  0  0  0  0  0  0  0  0  0  0
    4.0513    0.0242    0.7739 H   0  0  0  0  0  0  0  0  0  0  0  0
    3.0973    0.3791   -0.6486 H   0  0  0  0  0  0  0  0  0  0  0  0
    2.7987    2.1449    2.1057 H   0  0  0  0  0  0  0  0  0  0  0  0
    2.1140    2.4011    0.4974 H   0  0  0  0  0  0  0  0  0  0  0  0
    1.0450    2.2252    1.8695 H   0  0  0  0  0  0  0  0  0  0  0  0
    2.1353   -0.1554    2.2559 H   0  0  0  0  0  0  0  0  0  0  0  0
   -1.4796    3.3185   -0.7946 S   0  0  0  0  0  0  0  0  0  0  0  0
   -2.6346    2.2115   -0.5550 O   0  0  0  0  0  0  0  0  0  0  0  0
   -0.6366    3.3541    0.3847 O   0  0  0  0  0  0  0  0  0  0  0  0
   -2.0764    4.5209   -1.3052 O   0  0  0  0  0  0  0  0  0  0  0  0
    0.5925    1.6879   -1.5573 C   0  0  0  0  0  0  0  0  0  0  0  0
   -0.5606    2.5077   -2.0973 C   0  0  0  0  0  0  0  0  0  0  0  0
    1.3080    1.4364   -2.3654 H   0  0  0  0  0  0  0  0  0  0  0  0
    1.1847    2.2795   -0.8041 H   0  0  0  0  0  0  0  0  0  0  0  0
   -0.1681    3.2747   -2.8039 H   0  0  0  0  0  0  0  0  0  0  0  0
   -1.2423    1.9196   -2.7568 H   0  0  0  0  0  0  0  0  0  0  0  0
   -1.9017   -2.6226   -1.9040 S   0  0  0  0  0  0  0  0  0  0  0  0
   -2.4356   -1.8645   -0.5649 O   0  0  0  0  0  0  0  0  0  0  0  0
   -2.1760   -1.6782   -2.9805 O   0  0  0  0  0  0  0  0  0  0  0  0
   -2.3796   -3.9740   -1.9445 O   0  0  0  0  0  0  0  0  0  0  0  0
    0.4772   -1.2836   -1.9177 C   0  0  0  0  0  0  0  0  0  0  0  0
   -0.1568   -2.6135   -1.5639 C   0  0  0  0  0  0  0  0  0  0  0  0
    1.5828   -1.3689   -1.8930 H   0  0  0  0  0  0  0  0  0  0  0  0
    0.2136   -0.9907   -2.9626 H   0  0  0  0  0  0  0  0  0  0  0  0
    0.3513   -3.4262   -2.1287 H   0  0  0  0  0  0  0  0  0  0  0  0
    0.0411   -2.8990   -0.4962 H   0  0  0  0  0  0  0  0  0  0  0  0
  2  3  3  0  0  0  0
  1  2  1  0  0  0  0
  1  4  1  0  0  0  0
  4  5  1  0  0  0  0
  6  7  1  0  0  0  0
  7  8  1  0  0  0  0
  8  9  1  0  0  0  0
  8 10  1  0  0  0  0
  8 11  1  0  0  0  0
  6 12  1  0  0  0  0
  6 13  1  0  0  0  0
  6 14  1  0  0  0  0
  7 15  1  0  0  0  0
  5  7  1  0  0  0  0
 16 17  1  0  0  0  0
 17 18  1  0  0  0  0
 18 19  1  0  0  0  0
 18 20  1  0  0  0  0
 18 21  1  0  0  0  0
 16 22  1  0  0  0  0
 16 23  1  0  0  0  0
 16 24  1  0  0  0  0
 17 25  1  0  0  0  0
  5 17  1  0  0  0  0
 26 27  1  0  0  0  0
 28 26  2  0  0  0  0
 29 26  2  0  0  0  0
  1 27  1  0  0  0  0
 30 31  1  0  0  0  0
 30 32  1  0  0  0  0
 30 33  1  0  0  0  0
 31 34  1  0  0  0  0
 31 35  1  0  0  0  0
 26 31  1  0  0  0  0
 36 37  1  0  0  0  0
 38 36  2  0  0  0  0
 39 36  2  0  0  0  0
  1 37  1  0  0  0  0
 40 41  1  0  0  0  0
 40 42  1  0  0  0  0
 40 43  1  0  0  0  0
 41 44  1  0  0  0  0
 41 45  1  0  0  0  0
 36 41  1  0  0  0  0
  4 30  1  0  0  0  0
  4 40  1  0  0  0  0
M  END
> <PM6_ENERGY>
-1204.718

> <UID>
PWVMFNIJQSNERU-MKPVMIIZNA-L

> <FITNESS>
1.13909

> <GCODE>
42557

> <GraphENC>
42557 1897565_1_0,1897566_4_1,1897567_79_1,1897568_79_1,1897569_77_1,1897570_6_1,1897571_77_1,1897572_26_1,1897573_66_1,1897574_26_1,1897575_66_1,1897576_80_1,1897577_80_1, 1897565_2_1897566_3_SINGLE_scaff:0_MMonoAminoPhosphine:1,1897566_1_1897567_0_SINGLE_LMonoAminoPhosphineSubR:0_ATplus:0,1897566_2_1897568_0_SINGLE_LMonoAminoPhosphineSubR:0_ATplus:0,1897565_0_1897569_0_SINGLE_Xlig:0_Xlig:1,1897566_0_1897570_0_SINGLE_LMonoAminoPhosphineN:0_LAminoPhosphineN:1,1897565_1_1897571_0_SINGLE_Xlig:0_Xlig:1,1897570_2_1897572_0_SINGLE_AminoPhosphineSubN:0_SubRM:1,1897571_1_1897573_0_SINGLE_bridge:1_bridge:0,1897570_1_1897574_0_SINGLE_AminoPhosphineSubN:0_SubRM:1,1897569_1_1897575_0_SINGLE_bridge:1_bridge:0,1897573_1_1897576_0_SINGLE_bridge:0_ATminus:0,1897575_1_1897577_0_SINGLE_bridge:0_ATminus:0, DENOPTIMRing [vertices=[1897567_79_1, 1897566_4_1, 1897565_1_0, 1897571_77_1, 1897573_66_1, 1897576_80_1]] DENOPTIMRing [vertices=[1897568_79_1, 1897566_4_1, 1897565_1_0, 1897569_77_1, 1897575_66_1, 1897577_80_1]] SymmetricSet [symIds=[1897567, 1897568]] SymmetricSet [symIds=[1897569, 1897571]] SymmetricSet [symIds=[1897573, 1897575]] SymmetricSet [symIds=[1897572, 1897574]] SymmetricSet [symIds=[1897576, 1897577]] 

> <GraphJson>
{
  "graphId": 42557,
  "gVertices": [
    {
      "lstAPs": [
        {
          "id": 3116530,
          "atomPositionNumber": 0,
          "atomPositionNumberInMol": -1,
          "apClass": {
            "rule": "Xlig",
            "subClass": 0,
            "bndTyp": "SINGLE"
          },
          "dirVec": {
            "x": -2.3339,
            "y": -0.0087,
            "z": 0.8172
          }
        },
        {
          "id": 3116531,
          "atomPositionNumber": 0,
          "atomPositionNumberInMol": -1,
          "apClass": {
            "rule": "Xlig",
            "subClass": 0,
            "bndTyp": "SINGLE"
          },
          "dirVec": {
            "x": 2.336,
            "y": -5.0E-4,
            "z": 0.829
          }
        },
        {
          "id": 3116532,
          "atomPositionNumber": 0,
          "atomPositionNumberInMol": -1,
          "apClass": {
            "rule": "scaff",
            "subClass": 0,
            "bndTyp": "SINGLE"
          },
          "dirVec": {
            "x": -0.0095,
            "y": 0.0046,
            "z": -1.7113
          }
        }
      ],
      "lstSymAPs": [
        {
          "symIds": [
            0,
            1
          ]
        }
      ],
      "mol": {
        "atoms": [
          {
            "elSymbol": "Pt",
            "p3d": {
              "x": -0.0098,
              "y": 0.0049,
              "z": 0.6289
            }
          },
          {
            "elSymbol": "C",
            "p3d": {
              "x": -6.0E-4,
              "y": 0.0016,
              "z": 2.5609
            }
          },
          {
            "elSymbol": "O",
            "p3d": {
              "x": 0.0025,
              "y": -0.0041,
              "z": 3.6974
            }
          },
          {
            "elSymbol": "Du",
            "p3d": {
              "x": -0.007,
              "y": 1.0013,
              "z": 0.6372
            }
          },
          {
            "elSymbol": "Du",
            "p3d": {
              "x": -0.0014,
              "y": 0.9902,
              "z": 2.5698
            }
          }
        ],
        "bonds": [
          {
            "atomIds": [
              1,
              2
            ],
            "bo": "TRIPLE"
          },
          {
            "atomIds": [
              0,
              1
            ],
            "bo": "SINGLE"
          },
          {
            "atomIds": [
              3,
              0
            ],
            "bo": "SINGLE"
          },
          {
            "atomIds": [
              4,
              1
            ],
            "bo": "SINGLE"
          }
        ]
      },
      "vertexId": 1897565,
      "buildingBlockId": 0,
      "buildingBlockType": "SCAFFOLD",
      "isRCV": false,
      "properties": {
        "ATTACHMENT_POINTS": "1#Xlig:0:SINGLE:-2.3339%-0.0087%0.8172,Xlig:0:SINGLE:2.3360%-0.0005%0.8290,scaff:0:SINGLE:-0.0095%0.0046%-1.7113 ",
        "OLDVERTEXID": 169
      },
      "uniquefyingPropertyKeys": [],
      "allowedMutationTypes": [
        "DELETE",
        "EXTEND",
        "CHANGEBRANCH",
        "CHANGELINK",
        "ADDLINK",
        "DELETELINK",
        "DELETECHAIN"
      ],
      "vertexType": "MolecularFragment"
    },
    {
      "lstAPs": [
        {
          "id": 3116533,
          "atomPositionNumber": 0,
          "atomPositionNumberInMol": -1,
          "apClass": {
            "rule": "LMonoAminoPhosphineN",
            "subClass": 0,
            "bndTyp": "SINGLE"
          },
          "dirVec": {
            "x": 1.5576360714278132,
            "y": 0.04489007948791429,
            "z": -2.241202695388179
          }
        },
        {
          "id": 3116534,
          "atomPositionNumber": 0,
          "atomPositionNumberInMol": -1,
          "apClass": {
            "rule": "LMonoAminoPhosphineSubR",
            "subClass": 0,
            "bndTyp": "SINGLE"
          },
          "dirVec": {
            "x": -0.7810356757784612,
            "y": -1.5410049186499182,
            "z": -2.385973734275668
          }
        },
        {
          "id": 3116535,
          "atomPositionNumber": 0,
          "atomPositionNumberInMol": -1,
          "apClass": {
            "rule": "LMonoAminoPhosphineSubR",
            "subClass": 0,
            "bndTyp": "SINGLE"
          },
          "dirVec": {
            "x": -0.8999787291693976,
            "y": 1.4011327409517724,
            "z": -2.44926553472034
          }
        },
        {
          "id": 3116536,
          "atomPositionNumber": 0,
          "atomPositionNumberInMol": -1,
          "apClass": {
            "rule": "MMonoAminoPhosphine",
            "subClass": 1,
            "bndTyp": "SINGLE"
          },
          "dirVec": {
            "x": -0.009798817884168738,
            "y": 0.004898817884168566,
            "z": 0.6196787084387736
          }
        }
      ],
      "lstSymAPs": [
        {
          "symIds": [
            1,
            2
          ]
        }
      ],
      "mol": {
        "atoms": [
          {
            "elSymbol": "P",
            "p3d": {
              "x": -0.009501182115831262,
              "y": 0.0046011821158314335,
              "z": -1.702078708438774
            }
          }
        ],
        "bonds": []
      },
      "vertexId": 1897566,
      "buildingBlockId": 3,
      "buildingBlockType": "FRAGMENT",
      "isRCV": false,
      "properties": {
        "ATTACHMENT_POINTS": "1#LMonoAminoPhosphineN:0:SINGLE:1.5576%0.0449%-2.2412,LMonoAminoPhosphineSubR:0:SINGLE:-0.7810%-1.5410%-2.3860,LMonoAminoPhosphineSubR:0:SINGLE:-0.9000%1.4011%-2.4493,MMonoAminoPhosphine:1:SINGLE:-0.0098%0.0049%0.6197 ",
        "OLDVERTEXID": 170
      },
      "uniquefyingPropertyKeys": [],
      "allowedMutationTypes": [
        "DELETE",
        "EXTEND",
        "CHANGEBRANCH",
        "CHANGELINK",
        "ADDLINK",
        "DELETELINK",
        "DELETECHAIN"
      ],
      "vertexType": "MolecularFragment"
    },
    {
      "lstAPs": [
        {
          "id": 3116537,
          "atomPositionNumber": 0,
          "atomPositionNumberInMol": -1,
          "apClass": {
            "rule": "ATplus",
            "subClass": 0,
            "bndTyp": "ANY"
          },
          "dirVec": {
            "x": -0.7810356757784612,
            "y": -1.5410049186499182,
            "z": -2.385973734275668
          }
        }
      ],
      "lstSymAPs": [],
      "mol": {
        "atoms": [
          {
            "elSymbol": "ATP",
            "p3d": {
              "x": -0.7897530259255463,
              "y": -1.5584682850716631,
              "z": -2.393700870849651
            }
          }
        ],
        "bonds": []
      },
      "vertexId": 1897567,
      "buildingBlockId": 78,
      "buildingBlockType": "FRAGMENT",
      "isRCV": true,
      "properties": {
        "ATTACHMENT_POINTS": "1#ATplus:0:ANY:-0.7810%-1.5410%-2.3860 ",
        "OLDVERTEXID": 171
      },
      "uniquefyingPropertyKeys": [],
      "allowedMutationTypes": [
        "DELETE",
        "EXTEND",
        "CHANGEBRANCH",
        "CHANGELINK",
        "ADDLINK",
        "DELETELINK",
        "DELETECHAIN"
      ],
      "vertexType": "MolecularFragment"
    },
    {
      "lstAPs": [
        {
          "id": 3116538,
          "atomPositionNumber": 0,
          "atomPositionNumberInMol": -1,
          "apClass": {
            "rule": "ATplus",
            "subClass": 0,
            "bndTyp": "ANY"
          },
          "dirVec": {
            "x": -0.8999787291693976,
            "y": 1.4011327409517724,
            "z": -2.44926553472034
          }
        }
      ],
      "lstSymAPs": [],
      "mol": {
        "atoms": [
          {
            "elSymbol": "ATP",
            "p3d": {
              "x": -0.9102665054814141,
              "y": 1.4172670099600302,
              "z": -2.457897858979952
            }
          }
        ],
        "bonds": []
      },
      "vertexId": 1897568,
      "buildingBlockId": 78,
      "buildingBlockType": "FRAGMENT",
      "isRCV": true,
      "properties": {
        "ATTACHMENT_POINTS": "1#ATplus:0:ANY:-0.9000%1.4011%-2.4493 ",
        "OLDVERTEXID": 172
      },
      "uniquefyingPropertyKeys": [],
      "allowedMutationTypes": [
        "DELETE",
        "EXTEND",
        "CHANGEBRANCH",
        "CHANGELINK",
        "ADDLINK",
        "DELETELINK",
        "DELETECHAIN"
      ],
      "vertexType": "MolecularFragment"
    },
    {
      "lstAPs": [
        {
          "id": 3116539,
          "atomPositionNumber": 1,
          "atomPositionNumberInMol": -1,
          "apClass": {
            "rule": "Xlig",
            "subClass": 1,
            "bndTyp": "SINGLE"
          },
          "dirVec": {
            "x": 5.983,
            "y": 5.659,
            "z": 10.7602
          }
        },
        {
          "id": 3116540,
          "atomPositionNumber": 0,
          "atomPositionNumberInMol": -1,
          "apClass": {
            "rule": "bridge",
            "subClass": 1,
            "bndTyp": "SINGLE"
          },
          "dirVec": {
            "x": 3.1219,
            "y": 7.0322,
            "z": 12.57
          }
        }
      ],
      "lstSymAPs": [],
      "mol": {
        "atoms": [
          {
            "elSymbol": "S",
            "p3d": {
              "x": 3.289,
              "y": 7.1626,
              "z": 10.7898
            }
          },
          {
            "elSymbol": "O",
            "p3d": {
              "x": 4.7494,
              "y": 7.4238,
              "z": 10.5812
            }
          },
          {
            "elSymbol": "O",
            "p3d": {
              "x": 2.8666,
              "y": 5.9079,
              "z": 10.2063
            }
          },
          {
            "elSymbol": "O",
            "p3d": {
              "x": 2.5225,
              "y": 8.319,
              "z": 10.3914
            }
          }
        ],
        "bonds": [
          {
            "atomIds": [
              0,
              1
            ],
            "bo": "SINGLE"
          },
          {
            "atomIds": [
              2,
              0
            ],
            "bo": "DOUBLE"
          },
          {
            "atomIds": [
              3,
              0
            ],
            "bo": "DOUBLE"
          }
        ]
      },
      "vertexId": 1897569,
      "buildingBlockId": 76,
      "buildingBlockType": "FRAGMENT",
      "isRCV": false,
      "properties": {
        "ATTACHMENT_POINTS": "1#bridge:1:SINGLE:3.1219%7.0322%12.5700 2#Xlig:1:SINGLE:5.9830%5.6590%10.7602 ",
        "OLDVERTEXID": 12618
      },
      "uniquefyingPropertyKeys": [],
      "allowedMutationTypes": [
        "DELETE",
        "EXTEND",
        "CHANGEBRANCH",
        "CHANGELINK",
        "ADDLINK",
        "DELETELINK",
        "DELETECHAIN"
      ],
      "vertexType": "MolecularFragment"
    },
    {
      "lstAPs": [
        {
          "id": 3116541,
          "atomPositionNumber": 0,
          "atomPositionNumberInMol": -1,
          "apClass": {
            "rule": "LAminoPhosphineN",
            "subClass": 1,
            "bndTyp": "SINGLE"
          },
          "dirVec": {
            "x": 6.6462,
            "y": 11.4323,
            "z": 3.6382
          }
        },
        {
          "id": 3116542,
          "atomPositionNumber": 0,
          "atomPositionNumberInMol": -1,
          "apClass": {
            "rule": "AminoPhosphineSubN",
            "subClass": 0,
            "bndTyp": "SINGLE"
          },
          "dirVec": {
            "x": 8.2507,
            "y": 9.4804,
            "z": 2.5125
          }
        },
        {
          "id": 3116543,
          "atomPositionNumber": 0,
          "atomPositionNumberInMol": -1,
          "apClass": {
            "rule": "AminoPhosphineSubN",
            "subClass": 0,
            "bndTyp": "SINGLE"
          },
          "dirVec": {
            "x": 8.652,
            "y": 10.1585,
            "z": 4.8699
          }
        }
      ],
      "lstSymAPs": [
        {
          "symIds": [
            1,
            2
          ]
        }
      ],
      "mol": {
        "atoms": [
          {
            "elSymbol": "N",
            "p3d": {
              "x": 7.9829,
              "y": 10.4428,
              "z": 3.602
            }
          }
        ],
        "bonds": []
      },
      "vertexId": 1897570,
      "buildingBlockId": 5,
      "buildingBlockType": "FRAGMENT",
      "isRCV": false,
      "properties": {
        "ATTACHMENT_POINTS": "1#LAminoPhosphineN:1:SINGLE:6.6462%11.4323%3.6382,AminoPhosphineSubN:0:SINGLE:8.2507%9.4804%2.5125,AminoPhosphineSubN:0:SINGLE:8.6520%10.1585%4.8699 ",
        "OLDVERTEXID": 12627
      },
      "uniquefyingPropertyKeys": [],
      "allowedMutationTypes": [
        "DELETE",
        "EXTEND",
        "CHANGEBRANCH",
        "CHANGELINK",
        "ADDLINK",
        "DELETELINK",
        "DELETECHAIN"
      ],
      "vertexType": "MolecularFragment"
    },
    {
      "lstAPs": [
        {
          "id": 3116544,
          "atomPositionNumber": 1,
          "atomPositionNumberInMol": -1,
          "apClass": {
            "rule": "Xlig",
            "subClass": 1,
            "bndTyp": "SINGLE"
          },
          "dirVec": {
            "x": 5.983,
            "y": 5.659,
            "z": 10.7602
          }
        },
        {
          "id": 3116545,
          "atomPositionNumber": 0,
          "atomPositionNumberInMol": -1,
          "apClass": {
            "rule": "bridge",
            "subClass": 1,
            "bndTyp": "SINGLE"
          },
          "dirVec": {
            "x": 3.1219,
            "y": 7.0322,
            "z": 12.57
          }
        }
      ],
      "lstSymAPs": [],
      "mol": {
        "atoms": [
          {
            "elSymbol": "S",
            "p3d": {
              "x": 3.289,
              "y": 7.1626,
              "z": 10.7898
            }
          },
          {
            "elSymbol": "O",
            "p3d": {
              "x": 4.7494,
              "y": 7.4238,
              "z": 10.5812
            }
          },
          {
            "elSymbol": "O",
            "p3d": {
              "x": 2.8666,
              "y": 5.9079,
              "z": 10.2063
            }
          },
          {
            "elSymbol": "O",
            "p3d": {
              "x": 2.5225,
              "y": 8.319,
              "z": 10.3914
            }
          }
        ],
        "bonds": [
          {
            "atomIds": [
              0,
              1
            ],
            "bo": "SINGLE"
          },
          {
            "atomIds": [
              2,
              0
            ],
            "bo": "DOUBLE"
          },
          {
            "atomIds": [
              3,
              0
            ],
            "bo": "DOUBLE"
          }
        ]
      },
      "vertexId": 1897571,
      "buildingBlockId": 76,
      "buildingBlockType": "FRAGMENT",
      "isRCV": false,
      "properties": {
        "ATTACHMENT_POINTS": "1#bridge:1:SINGLE:3.1219%7.0322%12.5700 2#Xlig:1:SINGLE:5.9830%5.6590%10.7602 ",
        "OLDVERTEXID": 13147
      },
      "uniquefyingPropertyKeys": [],
      "allowedMutationTypes": [
        "DELETE",
        "EXTEND",
        "CHANGEBRANCH",
        "CHANGELINK",
        "ADDLINK",
        "DELETELINK",
        "DELETECHAIN"
      ],
      "vertexType": "MolecularFragment"
    },
    {
      "lstAPs": [
        {
          "id": 3116546,
          "atomPositionNumber": 1,
          "atomPositionNumberInMol": -1,
          "apClass": {
            "rule": "SubRM",
            "subClass": 1,
            "bndTyp": "SINGLE"
          },
          "dirVec": {
            "x": 0.2868,
            "y": 0.385,
            "z": -0.643
          }
        }
      ],
      "lstSymAPs": [],
      "mol": {
        "atoms": [
          {
            "elSymbol": "C",
            "p3d": {
              "x": 1.141,
              "y": 1.0262,
              "z": 1.6347
            }
          },
          {
            "elSymbol": "C",
            "p3d": {
              "x": 0.3967,
              "y": -0.0479,
              "z": 0.8227
            }
          },
          {
            "elSymbol": "C",
            "p3d": {
              "x": 1.1459,
              "y": -1.371,
              "z": 0.9201
            }
          },
          {
            "elSymbol": "H",
            "p3d": {
              "x": 2.1461,
              "y": -1.2583,
              "z": 0.4976
            }
          },
          {
            "elSymbol": "H",
            "p3d": {
              "x": 0.6013,
              "y": -2.1408,
              "z": 0.3461
            }
          },
          {
            "elSymbol": "H",
            "p3d": {
              "x": 1.2113,
              "y": -1.6946,
              "z": 1.9559
            }
          },
          {
            "elSymbol": "H",
            "p3d": {
              "x": 2.1541,
              "y": 1.1435,
              "z": 1.2119
            }
          },
          {
            "elSymbol": "H",
            "p3d": {
              "x": 0.6143,
              "y": 1.976,
              "z": 1.5626
            }
          },
          {
            "elSymbol": "H",
            "p3d": {
              "x": 1.2058,
              "y": 0.7088,
              "z": 2.6868
            }
          },
          {
            "elSymbol": "H",
            "p3d": {
              "x": -0.6215,
              "y": -0.1789,
              "z": 1.2377
            }
          }
        ],
        "bonds": [
          {
            "atomIds": [
              0,
              1
            ],
            "bo": "SINGLE"
          },
          {
            "atomIds": [
              1,
              2
            ],
            "bo": "SINGLE"
          },
          {
            "atomIds": [
              2,
              3
            ],
            "bo": "SINGLE"
          },
          {
            "atomIds": [
              2,
              4
            ],
            "bo": "SINGLE"
          },
          {
            "atomIds": [
              2,
              5
            ],
            "bo": "SINGLE"
          },
          {
            "atomIds": [
              0,
              6
            ],
            "bo": "SINGLE"
          },
          {
            "atomIds": [
              0,
              7
            ],
            "bo": "SINGLE"
          },
          {
            "atomIds": [
              0,
              8
            ],
            "bo": "SINGLE"
          },
          {
            "atomIds": [
              1,
              9
            ],
            "bo": "SINGLE"
          }
        ]
      },
      "vertexId": 1897572,
      "buildingBlockId": 25,
      "buildingBlockType": "FRAGMENT",
      "isRCV": false,
      "properties": {
        "ATTACHMENT_POINTS": "2#SubRM:1:SINGLE:0.2868%0.3850%-0.6430 ",
        "OLDVERTEXID": 303367
      },
      "uniquefyingPropertyKeys": [],
      "allowedMutationTypes": [
        "DELETE",
        "EXTEND",
        "CHANGEBRANCH",
        "CHANGELINK",
        "ADDLINK",
        "DELETELINK",
        "DELETECHAIN"
      ],
      "vertexType": "MolecularFragment"
    },
    {
      "lstAPs": [
        {
          "id": 3116547,
          "atomPositionNumber": 1,
          "atomPositionNumberInMol": -1,
          "apClass": {
            "rule": "bridge",
            "subClass": 0,
            "bndTyp": "SINGLE"
          },
          "dirVec": {
            "x": 0.4112,
            "y": -1.2101,
            "z": -0.19930000000000003
          }
        },
        {
          "id": 3116548,
          "atomPositionNumber": 0,
          "atomPositionNumberInMol": -1,
          "apClass": {
            "rule": "bridge",
            "subClass": 0,
            "bndTyp": "SINGLE"
          },
          "dirVec": {
            "x": 0.41179999999999994,
            "y": 1.21,
            "z": -0.19930000000000003
          }
        }
      ],
      "lstSymAPs": [
        {
          "symIds": [
            0,
            1
          ]
        }
      ],
      "mol": {
        "atoms": [
          {
            "elSymbol": "C",
            "p3d": {
              "x": -1.0414,
              "y": 0.7696,
              "z": 0.0732
            }
          },
          {
            "elSymbol": "C",
            "p3d": {
              "x": -1.0417,
              "y": -0.7693,
              "z": 0.0732
            }
          },
          {
            "elSymbol": "H",
            "p3d": {
              "x": -1.6983,
              "y": 1.1431,
              "z": -0.7123
            }
          },
          {
            "elSymbol": "H",
            "p3d": {
              "x": -1.369,
              "y": 1.143,
              "z": 1.0434
            }
          },
          {
            "elSymbol": "H",
            "p3d": {
              "x": -1.3695,
              "y": -1.1425,
              "z": 1.0434
            }
          },
          {
            "elSymbol": "H",
            "p3d": {
              "x": -1.6988,
              "y": -1.1424,
              "z": -0.7123
            }
          }
        ],
        "bonds": [
          {
            "atomIds": [
              0,
              1
            ],
            "bo": "SINGLE"
          },
          {
            "atomIds": [
              0,
              2
            ],
            "bo": "SINGLE"
          },
          {
            "atomIds": [
              0,
              3
            ],
            "bo": "SINGLE"
          },
          {
            "atomIds": [
              1,
              4
            ],
            "bo": "SINGLE"
          },
          {
            "atomIds": [
              1,
              5
            ],
            "bo": "SINGLE"
          }
        ]
      },
      "vertexId": 1897573,
      "buildingBlockId": 65,
      "buildingBlockType": "FRAGMENT",
      "isRCV": false,
      "properties": {
        "ATTACHMENT_POINTS": "1#bridge:0:SINGLE:0.4118%1.2100%-0.1993 2#bridge:0:SINGLE:0.4112%-1.2101%-0.1993 ",
        "OLDVERTEXID": 303368
      },
      "uniquefyingPropertyKeys": [],
      "allowedMutationTypes": [
        "DELETE",
        "EXTEND",
        "CHANGEBRANCH",
        "CHANGELINK",
        "ADDLINK",
        "DELETELINK",
        "DELETECHAIN"
      ],
      "vertexType": "MolecularFragment"
    },
    {
      "lstAPs": [
        {
          "id": 3116549,
          "atomPositionNumber": 1,
          "atomPositionNumberInMol": -1,
          "apClass": {
            "rule": "SubRM",
            "subClass": 1,
            "bndTyp": "SINGLE"
          },
          "dirVec": {
            "x": 0.2868,
            "y": 0.385,
            "z": -0.643
          }
        }
      ],
      "lstSymAPs": [],
      "mol": {
        "atoms": [
          {
            "elSymbol": "C",
            "p3d": {
              "x": 1.141,
              "y": 1.0262,
              "z": 1.6347
            }
          },
          {
            "elSymbol": "C",
            "p3d": {
              "x": 0.3967,
              "y": -0.0479,
              "z": 0.8227
            }
          },
          {
            "elSymbol": "C",
            "p3d": {
              "x": 1.1459,
              "y": -1.371,
              "z": 0.9201
            }
          },
          {
            "elSymbol": "H",
            "p3d": {
              "x": 2.1461,
              "y": -1.2583,
              "z": 0.4976
            }
          },
          {
            "elSymbol": "H",
            "p3d": {
              "x": 0.6013,
              "y": -2.1408,
              "z": 0.3461
            }
          },
          {
            "elSymbol": "H",
            "p3d": {
              "x": 1.2113,
              "y": -1.6946,
              "z": 1.9559
            }
          },
          {
            "elSymbol": "H",
            "p3d": {
              "x": 2.1541,
              "y": 1.1435,
              "z": 1.2119
            }
          },
          {
            "elSymbol": "H",
            "p3d": {
              "x": 0.6143,
              "y": 1.976,
              "z": 1.5626
            }
          },
          {
            "elSymbol": "H",
            "p3d": {
              "x": 1.2058,
              "y": 0.7088,
              "z": 2.6868
            }
          },
          {
            "elSymbol": "H",
            "p3d": {
              "x": -0.6215,
              "y": -0.1789,
              "z": 1.2377
            }
          }
        ],
        "bonds": [
          {
            "atomIds": [
              0,
              1
            ],
            "bo": "SINGLE"
          },
          {
            "atomIds": [
              1,
              2
            ],
            "bo": "SINGLE"
          },
          {
            "atomIds": [
              2,
              3
            ],
            "bo": "SINGLE"
          },
          {
            "atomIds": [
              2,
              4
            ],
            "bo": "SINGLE"
          },
          {
            "atomIds": [
              2,
              5
            ],
            "bo": "SINGLE"
          },
          {
            "atomIds": [
              0,
              6
            ],
            "bo": "SINGLE"
          },
          {
            "atomIds": [
              0,
              7
            ],
            "bo": "SINGLE"
          },
          {
            "atomIds": [
              0,
              8
            ],
            "bo": "SINGLE"
          },
          {
            "atomIds": [
              1,
              9
            ],
            "bo": "SINGLE"
          }
        ]
      },
      "vertexId": 1897574,
      "buildingBlockId": 25,
      "buildingBlockType": "FRAGMENT",
      "isRCV": false,
      "properties": {
        "ATTACHMENT_POINTS": "2#SubRM:1:SINGLE:0.2868%0.3850%-0.6430 ",
        "OLDVERTEXID": 302955
      },
      "uniquefyingPropertyKeys": [],
      "allowedMutationTypes": [
        "DELETE",
        "EXTEND",
        "CHANGEBRANCH",
        "CHANGELINK",
        "ADDLINK",
        "DELETELINK",
        "DELETECHAIN"
      ],
      "vertexType": "MolecularFragment"
    },
    {
      "lstAPs": [
        {
          "id": 3116550,
          "atomPositionNumber": 1,
          "atomPositionNumberInMol": -1,
          "apClass": {
            "rule": "bridge",
            "subClass": 0,
            "bndTyp": "SINGLE"
          },
          "dirVec": {
            "x": 0.4112,
            "y": -1.2101,
            "z": -0.19930000000000003
          }
        },
        {
          "id": 3116551,
          "atomPositionNumber": 0,
          "atomPositionNumberInMol": -1,
          "apClass": {
            "rule": "bridge",
            "subClass": 0,
            "bndTyp": "SINGLE"
          },
          "dirVec": {
            "x": 0.41179999999999994,
            "y": 1.21,
            "z": -0.19930000000000003
          }
        }
      ],
      "lstSymAPs": [
        {
          "symIds": [
            0,
            1
          ]
        }
      ],
      "mol": {
        "atoms": [
          {
            "elSymbol": "C",
            "p3d": {
              "x": -1.0414,
              "y": 0.7696,
              "z": 0.0732
            }
          },
          {
            "elSymbol": "C",
            "p3d": {
              "x": -1.0417,
              "y": -0.7693,
              "z": 0.0732
            }
          },
          {
            "elSymbol": "H",
            "p3d": {
              "x": -1.6983,
              "y": 1.1431,
              "z": -0.7123
            }
          },
          {
            "elSymbol": "H",
            "p3d": {
              "x": -1.369,
              "y": 1.143,
              "z": 1.0434
            }
          },
          {
            "elSymbol": "H",
            "p3d": {
              "x": -1.3695,
              "y": -1.1425,
              "z": 1.0434
            }
          },
          {
            "elSymbol": "H",
            "p3d": {
              "x": -1.6988,
              "y": -1.1424,
              "z": -0.7123
            }
          }
        ],
        "bonds": [
          {
            "atomIds": [
              0,
              1
            ],
            "bo": "SINGLE"
          },
          {
            "atomIds": [
              0,
              2
            ],
            "bo": "SINGLE"
          },
          {
            "atomIds": [
              0,
              3
            ],
            "bo": "SINGLE"
          },
          {
            "atomIds": [
              1,
              4
            ],
            "bo": "SINGLE"
          },
          {
            "atomIds": [
              1,
              5
            ],
            "bo": "SINGLE"
          }
        ]
      },
      "vertexId": 1897575,
      "buildingBlockId": 65,
      "buildingBlockType": "FRAGMENT",
      "isRCV": false,
      "properties": {
        "ATTACHMENT_POINTS": "1#bridge:0:SINGLE:0.4118%1.2100%-0.1993 2#bridge:0:SINGLE:0.4112%-1.2101%-0.1993 ",
        "OLDVERTEXID": 302937
      },
      "uniquefyingPropertyKeys": [],
      "allowedMutationTypes": [
        "DELETE",
        "EXTEND",
        "CHANGEBRANCH",
        "CHANGELINK",
        "ADDLINK",
        "DELETELINK",
        "DELETECHAIN"
      ],
      "vertexType": "MolecularFragment"
    },
    {
      "lstAPs": [
        {
          "id": 3116552,
          "atomPositionNumber": 0,
          "atomPositionNumberInMol": -1,
          "apClass": {
            "rule": "ATminus",
            "subClass": 0,
            "bndTyp": "ANY"
          },
          "dirVec": {
            "x": 0.0109,
            "y": -0.0071,
            "z": 0.0026
          }
        }
      ],
      "lstSymAPs": [],
      "mol": {
        "atoms": [
          {
            "elSymbol": "ATM",
            "p3d": {
              "x": -0.0096,
              "y": 0.0045,
              "z": -0.0011
            }
          }
        ],
        "bonds": []
      },
      "vertexId": 1897576,
      "buildingBlockId": 79,
      "buildingBlockType": "FRAGMENT",
      "isRCV": true,
      "properties": {
        "ATTACHMENT_POINTS": "1#ATminus:0:ANY:0.0109%-0.0071%0.0026 ",
        "OLDVERTEXID": 1897252
      },
      "uniquefyingPropertyKeys": [],
      "allowedMutationTypes": [
        "DELETE",
        "EXTEND",
        "CHANGEBRANCH",
        "CHANGELINK",
        "ADDLINK",
        "DELETELINK",
        "DELETECHAIN"
      ],
      "vertexType": "MolecularFragment"
    },
    {
      "lstAPs": [
        {
          "id": 3116553,
          "atomPositionNumber": 0,
          "atomPositionNumberInMol": -1,
          "apClass": {
            "rule": "ATminus",
            "subClass": 0,
            "bndTyp": "ANY"
          },
          "dirVec": {
            "x": 0.0109,
            "y": -0.0071,
            "z": 0.0026
          }
        }
      ],
      "lstSymAPs": [],
      "mol": {
        "atoms": [
          {
            "elSymbol": "ATM",
            "p3d": {
              "x": -0.0096,
              "y": 0.0045,
              "z": -0.0011
            }
          }
        ],
        "bonds": []
      },
      "vertexId": 1897577,
      "buildingBlockId": 79,
      "buildingBlockType": "FRAGMENT",
      "isRCV": true,
      "properties": {
        "ATTACHMENT_POINTS": "1#ATminus:0:ANY:0.0109%-0.0071%0.0026 ",
        "OLDVERTEXID": 1897254
      },
      "uniquefyingPropertyKeys": [],
      "allowedMutationTypes": [
        "DELETE",
        "EXTEND",
        "CHANGEBRANCH",
        "CHANGELINK",
        "ADDLINK",
        "DELETELINK",
        "DELETECHAIN"
      ],
      "vertexType": "MolecularFragment"
    }
  ],
  "gEdges": [
    {
      "srcAPID": 3116532,
      "trgAPID": 3116536,
      "bondType": "SINGLE"
    },
    {
      "srcAPID": 3116534,
      "trgAPID": 3116537,
      "bondType": "SINGLE"
    },
    {
      "srcAPID": 3116535,
      "trgAPID": 3116538,
      "bondType": "SINGLE"
    },
    {
      "srcAPID": 3116530,
      "trgAPID": 3116539,
      "bondType": "SINGLE"
    },
    {
      "srcAPID": 3116533,
      "trgAPID": 3116541,
      "bondType": "SINGLE"
    },
    {
      "srcAPID": 3116531,
      "trgAPID": 3116544,
      "bondType": "SINGLE"
    },
    {
      "srcAPID": 3116543,
      "trgAPID": 3116546,
      "bondType": "SINGLE"
    },
    {
      "srcAPID": 3116545,
      "trgAPID": 3116547,
      "bondType": "SINGLE"
    },
    {
      "srcAPID": 3116542,
      "trgAPID": 3116549,
      "bondType": "SINGLE"
    },
    {
      "srcAPID": 3116540,
      "trgAPID": 3116550,
      "bondType": "SINGLE"
    },
    {
      "srcAPID": 3116548,
      "trgAPID": 3116552,
      "bondType": "SINGLE"
    },
    {
      "srcAPID": 3116551,
      "trgAPID": 3116553,
      "bondType": "SINGLE"
    }
  ],
  "gRings": [
    {
      "vertices": [
        1897567,
        1897566,
        1897565,
        1897571,
        1897573,
        1897576
      ],
      "bndTyp": "SINGLE"
    },
    {
      "vertices": [
        1897568,
        1897566,
        1897565,
        1897569,
        1897575,
        1897577
      ],
      "bndTyp": "SINGLE"
    }
  ],
  "symVertices": [
    {
      "symIds": [
        1897567,
        1897568
      ]
    },
    {
      "symIds": [
        1897569,
        1897571
      ]
    },
    {
      "symIds": [
        1897573,
        1897575
      ]
    },
    {
      "symIds": [
        1897572,
        1897574
      ]
    },
    {
      "symIds": [
        1897576,
        1897577
      ]
    }
  ]
}

> <SMILES>
[Pt]12(C#O)[P](N(C(C([H])([H])[H])(C([H])([H])[H])[H])C(C([H])([H])[H])(C([H])([H])[H])[H])(C(C([H])([H])S(O1)(=O)=O)([H])[H])C(C([H])([H])S(O2)(=O)=O)([H])[H]

$$$$
