M30031823
  CDK     05082201123D

 31 34  0  0  0  0  0  0  0  0999 V2000
   -2.2731    0.0597    0.9235 Pt  0  0  0  0  0  0  0  0  0  0  0  0
   -4.2278    0.0283    1.0092 C   0  0  0  0  0  0  0  0  0  0  0  0
   -5.3688    0.0099    1.0288 O   0  0  0  0  0  0  0  0  0  0  0  0
   -0.0281    0.0957    0.6787 P   0  0  0  0  0  0  0  0  0  0  0  0
    0.9445    0.1334    2.0442 O   0  0  0  0  0  0  0  0  0  0  0  0
    0.3319   -0.5377    3.1808 C   0  0  0  0  0  0  0  0  0  0  0  0
    1.0596   -0.3249    3.9802 H   0  0  0  0  0  0  0  0  0  0  0  0
   -0.6429   -0.1007    3.4387 H   0  0  0  0  0  0  0  0  0  0  0  0
    0.2675   -1.6214    3.0139 H   0  0  0  0  0  0  0  0  0  0  0  0
   -2.1487   -2.2822    0.8868 S   0  0  0  0  0  0  0  0  0  0  0  0
   -0.6738   -2.4601   -0.0785 C   0  0  0  0  0  0  0  0  0  0  0  0
   -0.4896   -3.7028   -0.7014 C   0  0  0  0  0  0  0  0  0  0  0  0
    0.6675   -3.9314   -1.4470 C   0  0  0  0  0  0  0  0  0  0  0  0
    1.6448   -2.9331   -1.5769 C   0  0  0  0  0  0  0  0  0  0  0  0
    1.4654   -1.6956   -0.9552 C   0  0  0  0  0  0  0  0  0  0  0  0
    0.3053   -1.4669   -0.2121 C   0  0  0  0  0  0  0  0  0  0  0  0
   -1.2456   -4.4849   -0.6098 H   0  0  0  0  0  0  0  0  0  0  0  0
    2.2365   -0.9299   -1.0620 H   0  0  0  0  0  0  0  0  0  0  0  0
    2.5414   -3.1260   -2.1628 H   0  0  0  0  0  0  0  0  0  0  0  0
    0.8141   -4.8960   -1.9359 H   0  0  0  0  0  0  0  0  0  0  0  0
   -2.2310    2.3983    0.8056 S   0  0  0  0  0  0  0  0  0  0  0  0
   -0.7200    2.6228   -0.0898 C   0  0  0  0  0  0  0  0  0  0  0  0
   -0.5481    3.8757   -0.6976 C   0  0  0  0  0  0  0  0  0  0  0  0
    0.6302    4.1456   -1.3935 C   0  0  0  0  0  0  0  0  0  0  0  0
    1.6433    3.1789   -1.4910 C   0  0  0  0  0  0  0  0  0  0  0  0
    1.4785    1.9322   -0.8856 C   0  0  0  0  0  0  0  0  0  0  0  0
    0.2949    1.6616   -0.1941 C   0  0  0  0  0  0  0  0  0  0  0  0
   -1.3299    4.6347   -0.6294 H   0  0  0  0  0  0  0  0  0  0  0  0
    2.2779    1.1925   -0.9625 H   0  0  0  0  0  0  0  0  0  0  0  0
    2.5569    3.4058   -2.0370 H   0  0  0  0  0  0  0  0  0  0  0  0
    0.7672    5.1187   -1.8683 H   0  0  0  0  0  0  0  0  0  0  0  0
  2  3  3  0  0  0  0
  1  2  1  0  0  0  0
  1  4  1  0  0  0  0
  4  5  1  0  0  0  0
  6  7  1  0  0  0  0
  6  8  1  0  0  0  0
  6  9  1  0  0  0  0
  5  6  1  0  0  0  0
  1 10  1  0  0  0  0
 11 12  1  0  0  0  0
 12 13  2  0  0  0  0
 13 14  1  0  0  0  0
 14 15  2  0  0  0  0
 15 16  1  0  0  0  0
 11 16  2  0  0  0  0
 12 17  1  0  0  0  0
 15 18  1  0  0  0  0
 10 11  1  0  0  0  0
 14 19  1  0  0  0  0
 13 20  1  0  0  0  0
  1 21  1  0  0  0  0
 22 23  1  0  0  0  0
 23 24  2  0  0  0  0
 24 25  1  0  0  0  0
 25 26  2  0  0  0  0
 26 27  1  0  0  0  0
 22 27  2  0  0  0  0
 23 28  1  0  0  0  0
 26 29  1  0  0  0  0
 21 22  1  0  0  0  0
 25 30  1  0  0  0  0
 24 31  1  0  0  0  0
  4 16  1  0  0  0  0
  4 27  1  0  0  0  0
M  END
> <PM6_ENERGY>
-50.263

> <UID>
OIXYHNSVHFKTCY-UCDXLJQANA-L

> <FITNESS>
1.14132

> <GCODE>
81555

> <GraphENC>
81555 4087687_1_0,4087688_40_1,4087689_79_1,4087690_79_1,4087691_74_1,4087692_74_1,4087693_41_1,4087694_69_1,4087695_69_1,4087696_24_1,4087697_1_2,4087698_1_2,4087699_80_1,4087700_1_2,4087701_1_2,4087702_80_1, 4087687_2_4087688_3_SINGLE_scaff:0_MPhosphinite:1,4087688_1_4087689_0_SINGLE_LPhosphiniteSubR:0_ATplus:0,4087688_2_4087690_0_SINGLE_LPhosphiniteSubR:0_ATplus:0,4087687_1_4087691_0_SINGLE_Xlig:0_Xlig:1,4087687_0_4087692_0_SINGLE_Xlig:0_Xlig:1,4087688_0_4087693_0_SINGLE_LPhosphiniteSubO:0_LPhosphiniteSubO:1,4087691_1_4087694_0_SINGLE_bridge:1_bridge:0,4087692_1_4087695_0_SINGLE_bridge:1_bridge:0,4087693_1_4087696_0_SINGLE_OPhosphiniteSub:1_SubRS:1,4087695_3_4087697_0_SINGLE_SubBridgeArS:0_hyd:1,4087695_2_4087698_0_SINGLE_SubBridgeArS:0_hyd:1,4087694_1_4087699_0_SINGLE_bridge:0_ATminus:0,4087694_3_4087700_0_SINGLE_SubBridgeArS:0_hyd:1,4087694_2_4087701_0_SINGLE_SubBridgeArS:0_hyd:1,4087695_1_4087702_0_SINGLE_bridge:0_ATminus:0, DENOPTIMRing [vertices=[4087689_79_1, 4087688_40_1, 4087687_1_0, 4087692_74_1, 4087695_69_1, 4087702_80_1]] DENOPTIMRing [vertices=[4087690_79_1, 4087688_40_1, 4087687_1_0, 4087691_74_1, 4087694_69_1, 4087699_80_1]] SymmetricSet [symIds=[4087689, 4087690]] SymmetricSet [symIds=[4087691, 4087692]] SymmetricSet [symIds=[4087694, 4087695]] SymmetricSet [symIds=[4087699, 4087702]] SymmetricSet [symIds=[4087698, 4087701]] SymmetricSet [symIds=[4087697, 4087700]] 

> <GraphJson>
{
  "graphId": 81555,
  "gVertices": [
    {
      "lstAPs": [
        {
          "id": 6730982,
          "atomPositionNumber": 0,
          "atomPositionNumberInMol": -1,
          "apClass": {
            "rule": "Xlig",
            "subClass": 0,
            "bndTyp": "SINGLE"
          },
          "dirVec": {
            "x": -2.3339,
            "y": -0.0087,
            "z": 0.8172
          }
        },
        {
          "id": 6730983,
          "atomPositionNumber": 0,
          "atomPositionNumberInMol": -1,
          "apClass": {
            "rule": "Xlig",
            "subClass": 0,
            "bndTyp": "SINGLE"
          },
          "dirVec": {
            "x": 2.336,
            "y": -5.0E-4,
            "z": 0.829
          }
        },
        {
          "id": 6730984,
          "atomPositionNumber": 0,
          "atomPositionNumberInMol": -1,
          "apClass": {
            "rule": "scaff",
            "subClass": 0,
            "bndTyp": "SINGLE"
          },
          "dirVec": {
            "x": -0.0095,
            "y": 0.0046,
            "z": -1.7113
          }
        }
      ],
      "lstSymAPs": [
        {
          "symIds": [
            0,
            1
          ]
        }
      ],
      "mol": {
        "atoms": [
          {
            "elSymbol": "Pt",
            "p3d": {
              "x": -0.0098,
              "y": 0.0049,
              "z": 0.6289
            }
          },
          {
            "elSymbol": "C",
            "p3d": {
              "x": -6.0E-4,
              "y": 0.0016,
              "z": 2.5609
            }
          },
          {
            "elSymbol": "O",
            "p3d": {
              "x": 0.0025,
              "y": -0.0041,
              "z": 3.6974
            }
          },
          {
            "elSymbol": "Du",
            "p3d": {
              "x": -0.007,
              "y": 1.0013,
              "z": 0.6372
            }
          },
          {
            "elSymbol": "Du",
            "p3d": {
              "x": -0.0014,
              "y": 0.9902,
              "z": 2.5698
            }
          }
        ],
        "bonds": [
          {
            "atomIds": [
              1,
              2
            ],
            "bo": "TRIPLE"
          },
          {
            "atomIds": [
              0,
              1
            ],
            "bo": "SINGLE"
          },
          {
            "atomIds": [
              3,
              0
            ],
            "bo": "SINGLE"
          },
          {
            "atomIds": [
              4,
              1
            ],
            "bo": "SINGLE"
          }
        ]
      },
      "vertexId": 4087687,
      "buildingBlockId": 0,
      "buildingBlockType": "SCAFFOLD",
      "isRCV": false,
      "properties": {
        "ATTACHMENT_POINTS": "1#Xlig:0:SINGLE:-2.3339%-0.0087%0.8172,Xlig:0:SINGLE:2.3360%-0.0005%0.8290,scaff:0:SINGLE:-0.0095%0.0046%-1.7113 ",
        "OLDVERTEXID": 181
      },
      "uniquefyingPropertyKeys": [],
      "allowedMutationTypes": [
        "DELETE",
        "EXTEND",
        "CHANGEBRANCH",
        "CHANGELINK",
        "ADDLINK",
        "DELETELINK",
        "DELETECHAIN"
      ],
      "vertexType": "MolecularFragment"
    },
    {
      "lstAPs": [
        {
          "id": 6730985,
          "atomPositionNumber": 0,
          "atomPositionNumberInMol": -1,
          "apClass": {
            "rule": "LPhosphiniteSubO",
            "subClass": 0,
            "bndTyp": "SINGLE"
          },
          "dirVec": {
            "x": 1.2887515082297645,
            "y": 0.7828194090154784,
            "z": -2.226379424625455
          }
        },
        {
          "id": 6730986,
          "atomPositionNumber": 0,
          "atomPositionNumberInMol": -1,
          "apClass": {
            "rule": "LPhosphiniteSubR",
            "subClass": 0,
            "bndTyp": "SINGLE"
          },
          "dirVec": {
            "x": -1.418963531846024,
            "y": 0.7483957514432943,
            "z": -2.536456775534424
          }
        },
        {
          "id": 6730987,
          "atomPositionNumber": 0,
          "atomPositionNumberInMol": -1,
          "apClass": {
            "rule": "LPhosphiniteSubR",
            "subClass": 0,
            "bndTyp": "SINGLE"
          },
          "dirVec": {
            "x": 0.10888979903333249,
            "y": -1.6640902384820395,
            "z": -2.3771613338707183
          }
        },
        {
          "id": 6730988,
          "atomPositionNumber": 0,
          "atomPositionNumberInMol": -1,
          "apClass": {
            "rule": "MPhosphinite",
            "subClass": 1,
            "bndTyp": "SINGLE"
          },
          "dirVec": {
            "x": -0.009797305541768834,
            "y": 0.004897305541768998,
            "z": 0.6078814294914674
          }
        }
      ],
      "lstSymAPs": [
        {
          "symIds": [
            1,
            2
          ]
        }
      ],
      "mol": {
        "atoms": [
          {
            "elSymbol": "P",
            "p3d": {
              "x": -0.009502694458231166,
              "y": 0.004602694458231002,
              "z": -1.6902814294914679
            }
          }
        ],
        "bonds": []
      },
      "vertexId": 4087688,
      "buildingBlockId": 39,
      "buildingBlockType": "FRAGMENT",
      "isRCV": false,
      "properties": {
        "ATTACHMENT_POINTS": "1#LPhosphiniteSubO:0:SINGLE:1.2888%0.7828%-2.2264,LPhosphiniteSubR:0:SINGLE:-1.4190%0.7484%-2.5365,LPhosphiniteSubR:0:SINGLE:0.1089%-1.6641%-2.3772,MPhosphinite:1:SINGLE:-0.0098%0.0049%0.6079 ",
        "OLDVERTEXID": 182
      },
      "uniquefyingPropertyKeys": [],
      "allowedMutationTypes": [
        "DELETE",
        "EXTEND",
        "CHANGEBRANCH",
        "CHANGELINK",
        "ADDLINK",
        "DELETELINK",
        "DELETECHAIN"
      ],
      "vertexType": "MolecularFragment"
    },
    {
      "lstAPs": [
        {
          "id": 6730989,
          "atomPositionNumber": 0,
          "atomPositionNumberInMol": -1,
          "apClass": {
            "rule": "ATplus",
            "subClass": 0,
            "bndTyp": "ANY"
          },
          "dirVec": {
            "x": -1.418963531846024,
            "y": 0.7483957514432943,
            "z": -2.536456775534424
          }
        }
      ],
      "lstSymAPs": [],
      "mol": {
        "atoms": [
          {
            "elSymbol": "ATP",
            "p3d": {
              "x": -1.435361102745592,
              "y": 0.7570489889529813,
              "z": -2.546301121586579
            }
          }
        ],
        "bonds": []
      },
      "vertexId": 4087689,
      "buildingBlockId": 78,
      "buildingBlockType": "FRAGMENT",
      "isRCV": true,
      "properties": {
        "ATTACHMENT_POINTS": "1#ATplus:0:ANY:-1.4190%0.7484%-2.5365 ",
        "OLDVERTEXID": 183
      },
      "uniquefyingPropertyKeys": [],
      "allowedMutationTypes": [
        "DELETE",
        "EXTEND",
        "CHANGEBRANCH",
        "CHANGELINK",
        "ADDLINK",
        "DELETELINK",
        "DELETECHAIN"
      ],
      "vertexType": "MolecularFragment"
    },
    {
      "lstAPs": [
        {
          "id": 6730990,
          "atomPositionNumber": 0,
          "atomPositionNumberInMol": -1,
          "apClass": {
            "rule": "ATplus",
            "subClass": 0,
            "bndTyp": "ANY"
          },
          "dirVec": {
            "x": 0.10888979903333249,
            "y": -1.6640902384820395,
            "z": -2.3771613338707183
          }
        }
      ],
      "lstSymAPs": [],
      "mol": {
        "atoms": [
          {
            "elSymbol": "ATP",
            "p3d": {
              "x": 0.1102641046947829,
              "y": -1.683460504935001,
              "z": -2.3851346682729724
            }
          }
        ],
        "bonds": []
      },
      "vertexId": 4087690,
      "buildingBlockId": 78,
      "buildingBlockType": "FRAGMENT",
      "isRCV": true,
      "properties": {
        "ATTACHMENT_POINTS": "1#ATplus:0:ANY:0.1089%-1.6641%-2.3772 ",
        "OLDVERTEXID": 184
      },
      "uniquefyingPropertyKeys": [],
      "allowedMutationTypes": [
        "DELETE",
        "EXTEND",
        "CHANGEBRANCH",
        "CHANGELINK",
        "ADDLINK",
        "DELETELINK",
        "DELETECHAIN"
      ],
      "vertexType": "MolecularFragment"
    },
    {
      "lstAPs": [
        {
          "id": 6730991,
          "atomPositionNumber": 0,
          "atomPositionNumberInMol": -1,
          "apClass": {
            "rule": "Xlig",
            "subClass": 1,
            "bndTyp": "SINGLE"
          },
          "dirVec": {
            "x": -0.102,
            "y": 0.0185,
            "z": -1.0265
          }
        },
        {
          "id": 6730992,
          "atomPositionNumber": 0,
          "atomPositionNumberInMol": -1,
          "apClass": {
            "rule": "bridge",
            "subClass": 1,
            "bndTyp": "SINGLE"
          },
          "dirVec": {
            "x": -0.626,
            "y": 2.4866,
            "z": 0.7805
          }
        }
      ],
      "lstSymAPs": [],
      "mol": {
        "atoms": [
          {
            "elSymbol": "S",
            "p3d": {
              "x": -0.3267,
              "y": 2.3403,
              "z": -1.0022
            }
          }
        ],
        "bonds": []
      },
      "vertexId": 4087691,
      "buildingBlockId": 73,
      "buildingBlockType": "FRAGMENT",
      "isRCV": false,
      "properties": {
        "ATTACHMENT_POINTS": "1#Xlig:1:SINGLE:-0.1020%0.0185%-1.0265,bridge:1:SINGLE:-0.6260%2.4866%0.7805 ",
        "OLDVERTEXID": 14733
      },
      "uniquefyingPropertyKeys": [],
      "allowedMutationTypes": [
        "DELETE",
        "EXTEND",
        "CHANGEBRANCH",
        "CHANGELINK",
        "ADDLINK",
        "DELETELINK",
        "DELETECHAIN"
      ],
      "vertexType": "MolecularFragment"
    },
    {
      "lstAPs": [
        {
          "id": 6730993,
          "atomPositionNumber": 0,
          "atomPositionNumberInMol": -1,
          "apClass": {
            "rule": "Xlig",
            "subClass": 1,
            "bndTyp": "SINGLE"
          },
          "dirVec": {
            "x": -0.102,
            "y": 0.0185,
            "z": -1.0265
          }
        },
        {
          "id": 6730994,
          "atomPositionNumber": 0,
          "atomPositionNumberInMol": -1,
          "apClass": {
            "rule": "bridge",
            "subClass": 1,
            "bndTyp": "SINGLE"
          },
          "dirVec": {
            "x": -0.626,
            "y": 2.4866,
            "z": 0.7805
          }
        }
      ],
      "lstSymAPs": [],
      "mol": {
        "atoms": [
          {
            "elSymbol": "S",
            "p3d": {
              "x": -0.3267,
              "y": 2.3403,
              "z": -1.0022
            }
          }
        ],
        "bonds": []
      },
      "vertexId": 4087692,
      "buildingBlockId": 73,
      "buildingBlockType": "FRAGMENT",
      "isRCV": false,
      "properties": {
        "ATTACHMENT_POINTS": "1#Xlig:1:SINGLE:-0.1020%0.0185%-1.0265,bridge:1:SINGLE:-0.6260%2.4866%0.7805 ",
        "OLDVERTEXID": 14708
      },
      "uniquefyingPropertyKeys": [],
      "allowedMutationTypes": [
        "DELETE",
        "EXTEND",
        "CHANGEBRANCH",
        "CHANGELINK",
        "ADDLINK",
        "DELETELINK",
        "DELETECHAIN"
      ],
      "vertexType": "MolecularFragment"
    },
    {
      "lstAPs": [
        {
          "id": 6730995,
          "atomPositionNumber": 0,
          "atomPositionNumberInMol": -1,
          "apClass": {
            "rule": "LPhosphiniteSubO",
            "subClass": 1,
            "bndTyp": "SINGLE"
          },
          "dirVec": {
            "x": -3.8355,
            "y": 7.5392,
            "z": 4.6611
          }
        },
        {
          "id": 6730996,
          "atomPositionNumber": 0,
          "atomPositionNumberInMol": -1,
          "apClass": {
            "rule": "OPhosphiniteSub",
            "subClass": 1,
            "bndTyp": "SINGLE"
          },
          "dirVec": {
            "x": -3.5459,
            "y": 7.828,
            "z": 2.0236
          }
        }
      ],
      "lstSymAPs": [],
      "mol": {
        "atoms": [
          {
            "elSymbol": "O",
            "p3d": {
              "x": -4.0711,
              "y": 7.164,
              "z": 3.1009
            }
          }
        ],
        "bonds": []
      },
      "vertexId": 4087693,
      "buildingBlockId": 40,
      "buildingBlockType": "FRAGMENT",
      "isRCV": false,
      "properties": {
        "ATTACHMENT_POINTS": "1#LPhosphiniteSubO:1:SINGLE:-3.8355%7.5392%4.6611,OPhosphiniteSub:1:SINGLE:-3.5459%7.8280%2.0236 ",
        "OLDVERTEXID": 14715
      },
      "uniquefyingPropertyKeys": [],
      "allowedMutationTypes": [
        "DELETE",
        "EXTEND",
        "CHANGEBRANCH",
        "CHANGELINK",
        "ADDLINK",
        "DELETELINK",
        "DELETECHAIN"
      ],
      "vertexType": "MolecularFragment"
    },
    {
      "lstAPs": [
        {
          "id": 6730997,
          "atomPositionNumber": 0,
          "atomPositionNumberInMol": -1,
          "apClass": {
            "rule": "bridge",
            "subClass": 0,
            "bndTyp": "SINGLE"
          },
          "dirVec": {
            "x": 2.5022,
            "y": 1.4447,
            "z": 0.0013
          }
        },
        {
          "id": 6730998,
          "atomPositionNumber": 5,
          "atomPositionNumberInMol": -1,
          "apClass": {
            "rule": "bridge",
            "subClass": 0,
            "bndTyp": "SINGLE"
          },
          "dirVec": {
            "x": 2.5022,
            "y": -1.4447,
            "z": -0.0015
          }
        },
        {
          "id": 6730999,
          "atomPositionNumber": 2,
          "atomPositionNumberInMol": -1,
          "apClass": {
            "rule": "SubBridgeArS",
            "subClass": 0,
            "bndTyp": "SINGLE"
          },
          "dirVec": {
            "x": -2.5022,
            "y": 1.4447,
            "z": -0.0014
          }
        },
        {
          "id": 6731000,
          "atomPositionNumber": 3,
          "atomPositionNumberInMol": -1,
          "apClass": {
            "rule": "SubBridgeArS",
            "subClass": 0,
            "bndTyp": "SINGLE"
          },
          "dirVec": {
            "x": -2.5022,
            "y": -1.4447,
            "z": 6.0E-4
          }
        }
      ],
      "lstSymAPs": [
        {
          "symIds": [
            0,
            1
          ]
        },
        {
          "symIds": [
            2,
            3
          ]
        }
      ],
      "mol": {
        "atoms": [
          {
            "elSymbol": "C",
            "p3d": {
              "x": 1.1971,
              "y": 0.6912,
              "z": 0.0015
            }
          },
          {
            "elSymbol": "C",
            "p3d": {
              "x": 0.0,
              "y": 1.3824,
              "z": -3.0E-4
            }
          },
          {
            "elSymbol": "C",
            "p3d": {
              "x": -1.1971,
              "y": 0.6912,
              "z": -1.0E-4
            }
          },
          {
            "elSymbol": "C",
            "p3d": {
              "x": -1.1971,
              "y": -0.6912,
              "z": 9.0E-4
            }
          },
          {
            "elSymbol": "C",
            "p3d": {
              "x": 0.0,
              "y": -1.3824,
              "z": 0.0017
            }
          },
          {
            "elSymbol": "C",
            "p3d": {
              "x": 1.1971,
              "y": -0.6912,
              "z": -0.0024
            }
          },
          {
            "elSymbol": "H",
            "p3d": {
              "x": 0.0,
              "y": 2.4624,
              "z": -0.0014
            }
          },
          {
            "elSymbol": "H",
            "p3d": {
              "x": 0.0,
              "y": -2.4624,
              "z": 0.0021
            }
          }
        ],
        "bonds": [
          {
            "atomIds": [
              0,
              1
            ],
            "bo": "SINGLE"
          },
          {
            "atomIds": [
              1,
              2
            ],
            "bo": "DOUBLE"
          },
          {
            "atomIds": [
              2,
              3
            ],
            "bo": "SINGLE"
          },
          {
            "atomIds": [
              3,
              4
            ],
            "bo": "DOUBLE"
          },
          {
            "atomIds": [
              4,
              5
            ],
            "bo": "SINGLE"
          },
          {
            "atomIds": [
              0,
              5
            ],
            "bo": "DOUBLE"
          },
          {
            "atomIds": [
              1,
              6
            ],
            "bo": "SINGLE"
          },
          {
            "atomIds": [
              4,
              7
            ],
            "bo": "SINGLE"
          }
        ]
      },
      "vertexId": 4087694,
      "buildingBlockId": 68,
      "buildingBlockType": "FRAGMENT",
      "isRCV": false,
      "properties": {
        "ATTACHMENT_POINTS": "1#bridge:0:SINGLE:2.5022%1.4447%0.0013 3#SubBridgeArS:0:SINGLE:-2.5022%1.4447%-0.0014 4#SubBridgeArS:0:SINGLE:-2.5022%-1.4447%0.0006 6#bridge:0:SINGLE:2.5022%-1.4447%-0.0015 ",
        "OLDVERTEXID": 368101
      },
      "uniquefyingPropertyKeys": [],
      "allowedMutationTypes": [
        "DELETE",
        "EXTEND",
        "CHANGEBRANCH",
        "CHANGELINK",
        "ADDLINK",
        "DELETELINK",
        "DELETECHAIN"
      ],
      "vertexType": "MolecularFragment"
    },
    {
      "lstAPs": [
        {
          "id": 6731001,
          "atomPositionNumber": 0,
          "atomPositionNumberInMol": -1,
          "apClass": {
            "rule": "bridge",
            "subClass": 0,
            "bndTyp": "SINGLE"
          },
          "dirVec": {
            "x": 2.5022,
            "y": 1.4447,
            "z": 0.0013
          }
        },
        {
          "id": 6731002,
          "atomPositionNumber": 5,
          "atomPositionNumberInMol": -1,
          "apClass": {
            "rule": "bridge",
            "subClass": 0,
            "bndTyp": "SINGLE"
          },
          "dirVec": {
            "x": 2.5022,
            "y": -1.4447,
            "z": -0.0015
          }
        },
        {
          "id": 6731003,
          "atomPositionNumber": 2,
          "atomPositionNumberInMol": -1,
          "apClass": {
            "rule": "SubBridgeArS",
            "subClass": 0,
            "bndTyp": "SINGLE"
          },
          "dirVec": {
            "x": -2.5022,
            "y": 1.4447,
            "z": -0.0014
          }
        },
        {
          "id": 6731004,
          "atomPositionNumber": 3,
          "atomPositionNumberInMol": -1,
          "apClass": {
            "rule": "SubBridgeArS",
            "subClass": 0,
            "bndTyp": "SINGLE"
          },
          "dirVec": {
            "x": -2.5022,
            "y": -1.4447,
            "z": 6.0E-4
          }
        }
      ],
      "lstSymAPs": [
        {
          "symIds": [
            0,
            1
          ]
        },
        {
          "symIds": [
            2,
            3
          ]
        }
      ],
      "mol": {
        "atoms": [
          {
            "elSymbol": "C",
            "p3d": {
              "x": 1.1971,
              "y": 0.6912,
              "z": 0.0015
            }
          },
          {
            "elSymbol": "C",
            "p3d": {
              "x": 0.0,
              "y": 1.3824,
              "z": -3.0E-4
            }
          },
          {
            "elSymbol": "C",
            "p3d": {
              "x": -1.1971,
              "y": 0.6912,
              "z": -1.0E-4
            }
          },
          {
            "elSymbol": "C",
            "p3d": {
              "x": -1.1971,
              "y": -0.6912,
              "z": 9.0E-4
            }
          },
          {
            "elSymbol": "C",
            "p3d": {
              "x": 0.0,
              "y": -1.3824,
              "z": 0.0017
            }
          },
          {
            "elSymbol": "C",
            "p3d": {
              "x": 1.1971,
              "y": -0.6912,
              "z": -0.0024
            }
          },
          {
            "elSymbol": "H",
            "p3d": {
              "x": 0.0,
              "y": 2.4624,
              "z": -0.0014
            }
          },
          {
            "elSymbol": "H",
            "p3d": {
              "x": 0.0,
              "y": -2.4624,
              "z": 0.0021
            }
          }
        ],
        "bonds": [
          {
            "atomIds": [
              0,
              1
            ],
            "bo": "SINGLE"
          },
          {
            "atomIds": [
              1,
              2
            ],
            "bo": "DOUBLE"
          },
          {
            "atomIds": [
              2,
              3
            ],
            "bo": "SINGLE"
          },
          {
            "atomIds": [
              3,
              4
            ],
            "bo": "DOUBLE"
          },
          {
            "atomIds": [
              4,
              5
            ],
            "bo": "SINGLE"
          },
          {
            "atomIds": [
              0,
              5
            ],
            "bo": "DOUBLE"
          },
          {
            "atomIds": [
              1,
              6
            ],
            "bo": "SINGLE"
          },
          {
            "atomIds": [
              4,
              7
            ],
            "bo": "SINGLE"
          }
        ]
      },
      "vertexId": 4087695,
      "buildingBlockId": 68,
      "buildingBlockType": "FRAGMENT",
      "isRCV": false,
      "properties": {
        "ATTACHMENT_POINTS": "1#bridge:0:SINGLE:2.5022%1.4447%0.0013 3#SubBridgeArS:0:SINGLE:-2.5022%1.4447%-0.0014 4#SubBridgeArS:0:SINGLE:-2.5022%-1.4447%0.0006 6#bridge:0:SINGLE:2.5022%-1.4447%-0.0015 ",
        "OLDVERTEXID": 369992
      },
      "uniquefyingPropertyKeys": [],
      "allowedMutationTypes": [
        "DELETE",
        "EXTEND",
        "CHANGEBRANCH",
        "CHANGELINK",
        "ADDLINK",
        "DELETELINK",
        "DELETECHAIN"
      ],
      "vertexType": "MolecularFragment"
    },
    {
      "lstAPs": [
        {
          "id": 6731005,
          "atomPositionNumber": 0,
          "atomPositionNumberInMol": -1,
          "apClass": {
            "rule": "SubRS",
            "subClass": 1,
            "bndTyp": "SINGLE"
          },
          "dirVec": {
            "x": 0.2865,
            "y": 0.3959,
            "z": -0.6387
          }
        }
      ],
      "lstSymAPs": [],
      "mol": {
        "atoms": [
          {
            "elSymbol": "C",
            "p3d": {
              "x": 0.3969,
              "y": -0.0496,
              "z": 0.8235
            }
          },
          {
            "elSymbol": "H",
            "p3d": {
              "x": -0.6146,
              "y": -0.163,
              "z": 1.2402
            }
          },
          {
            "elSymbol": "H",
            "p3d": {
              "x": 0.9335,
              "y": -0.9979,
              "z": 0.8998
            }
          },
          {
            "elSymbol": "H",
            "p3d": {
              "x": 0.9252,
              "y": 0.7237,
              "z": 1.3995
            }
          }
        ],
        "bonds": [
          {
            "atomIds": [
              0,
              1
            ],
            "bo": "SINGLE"
          },
          {
            "atomIds": [
              0,
              2
            ],
            "bo": "SINGLE"
          },
          {
            "atomIds": [
              0,
              3
            ],
            "bo": "SINGLE"
          }
        ]
      },
      "vertexId": 4087696,
      "buildingBlockId": 23,
      "buildingBlockType": "FRAGMENT",
      "isRCV": false,
      "properties": {
        "ATTACHMENT_POINTS": "1#SubRS:1:SINGLE:0.2865%0.3959%-0.6387 ",
        "OLDVERTEXID": 368111
      },
      "uniquefyingPropertyKeys": [],
      "allowedMutationTypes": [
        "DELETE",
        "EXTEND",
        "CHANGEBRANCH",
        "CHANGELINK",
        "ADDLINK",
        "DELETELINK",
        "DELETECHAIN"
      ],
      "vertexType": "MolecularFragment"
    },
    {
      "lstAPs": [
        {
          "id": 6731006,
          "atomPositionNumber": 0,
          "atomPositionNumberInMol": -1,
          "apClass": {
            "rule": "hyd",
            "subClass": 1,
            "bndTyp": "SINGLE"
          },
          "dirVec": {
            "x": 0.4589,
            "y": -1.751,
            "z": 0.3869
          }
        }
      ],
      "lstSymAPs": [],
      "mol": {
        "atoms": [
          {
            "elSymbol": "H",
            "p3d": {
              "x": 0.1925,
              "y": -2.5024,
              "z": 1.1483
            }
          }
        ],
        "bonds": []
      },
      "vertexId": 4087697,
      "buildingBlockId": 0,
      "buildingBlockType": "CAP",
      "isRCV": false,
      "properties": {
        "ATTACHMENT_POINTS": "1#hyd:1:SINGLE:0.4589%-1.7510%0.3869 ",
        "OLDVERTEXID": 4087273
      },
      "uniquefyingPropertyKeys": [],
      "allowedMutationTypes": [
        "DELETE",
        "EXTEND",
        "CHANGEBRANCH",
        "CHANGELINK",
        "ADDLINK",
        "DELETELINK",
        "DELETECHAIN"
      ],
      "vertexType": "MolecularFragment"
    },
    {
      "lstAPs": [
        {
          "id": 6731007,
          "atomPositionNumber": 0,
          "atomPositionNumberInMol": -1,
          "apClass": {
            "rule": "hyd",
            "subClass": 1,
            "bndTyp": "SINGLE"
          },
          "dirVec": {
            "x": 0.4589,
            "y": -1.751,
            "z": 0.3869
          }
        }
      ],
      "lstSymAPs": [],
      "mol": {
        "atoms": [
          {
            "elSymbol": "H",
            "p3d": {
              "x": 0.1925,
              "y": -2.5024,
              "z": 1.1483
            }
          }
        ],
        "bonds": []
      },
      "vertexId": 4087698,
      "buildingBlockId": 0,
      "buildingBlockType": "CAP",
      "isRCV": false,
      "properties": {
        "ATTACHMENT_POINTS": "1#hyd:1:SINGLE:0.4589%-1.7510%0.3869 ",
        "OLDVERTEXID": 4087274
      },
      "uniquefyingPropertyKeys": [],
      "allowedMutationTypes": [
        "DELETE",
        "EXTEND",
        "CHANGEBRANCH",
        "CHANGELINK",
        "ADDLINK",
        "DELETELINK",
        "DELETECHAIN"
      ],
      "vertexType": "MolecularFragment"
    },
    {
      "lstAPs": [
        {
          "id": 6731008,
          "atomPositionNumber": 0,
          "atomPositionNumberInMol": -1,
          "apClass": {
            "rule": "ATminus",
            "subClass": 0,
            "bndTyp": "ANY"
          },
          "dirVec": {
            "x": 0.0109,
            "y": -0.0071,
            "z": 0.0026
          }
        }
      ],
      "lstSymAPs": [],
      "mol": {
        "atoms": [
          {
            "elSymbol": "ATM",
            "p3d": {
              "x": -0.0096,
              "y": 0.0045,
              "z": -0.0011
            }
          }
        ],
        "bonds": []
      },
      "vertexId": 4087699,
      "buildingBlockId": 79,
      "buildingBlockType": "FRAGMENT",
      "isRCV": true,
      "properties": {
        "ATTACHMENT_POINTS": "1#ATminus:0:ANY:0.0109%-0.0071%0.0026 ",
        "OLDVERTEXID": 4084671
      },
      "uniquefyingPropertyKeys": [],
      "allowedMutationTypes": [
        "DELETE",
        "EXTEND",
        "CHANGEBRANCH",
        "CHANGELINK",
        "ADDLINK",
        "DELETELINK",
        "DELETECHAIN"
      ],
      "vertexType": "MolecularFragment"
    },
    {
      "lstAPs": [
        {
          "id": 6731009,
          "atomPositionNumber": 0,
          "atomPositionNumberInMol": -1,
          "apClass": {
            "rule": "hyd",
            "subClass": 1,
            "bndTyp": "SINGLE"
          },
          "dirVec": {
            "x": 0.4589,
            "y": -1.751,
            "z": 0.3869
          }
        }
      ],
      "lstSymAPs": [],
      "mol": {
        "atoms": [
          {
            "elSymbol": "H",
            "p3d": {
              "x": 0.1925,
              "y": -2.5024,
              "z": 1.1483
            }
          }
        ],
        "bonds": []
      },
      "vertexId": 4087700,
      "buildingBlockId": 0,
      "buildingBlockType": "CAP",
      "isRCV": false,
      "properties": {
        "ATTACHMENT_POINTS": "1#hyd:1:SINGLE:0.4589%-1.7510%0.3869 ",
        "OLDVERTEXID": 4084684
      },
      "uniquefyingPropertyKeys": [],
      "allowedMutationTypes": [
        "DELETE",
        "EXTEND",
        "CHANGEBRANCH",
        "CHANGELINK",
        "ADDLINK",
        "DELETELINK",
        "DELETECHAIN"
      ],
      "vertexType": "MolecularFragment"
    },
    {
      "lstAPs": [
        {
          "id": 6731010,
          "atomPositionNumber": 0,
          "atomPositionNumberInMol": -1,
          "apClass": {
            "rule": "hyd",
            "subClass": 1,
            "bndTyp": "SINGLE"
          },
          "dirVec": {
            "x": 0.4589,
            "y": -1.751,
            "z": 0.3869
          }
        }
      ],
      "lstSymAPs": [],
      "mol": {
        "atoms": [
          {
            "elSymbol": "H",
            "p3d": {
              "x": 0.1925,
              "y": -2.5024,
              "z": 1.1483
            }
          }
        ],
        "bonds": []
      },
      "vertexId": 4087701,
      "buildingBlockId": 0,
      "buildingBlockType": "CAP",
      "isRCV": false,
      "properties": {
        "ATTACHMENT_POINTS": "1#hyd:1:SINGLE:0.4589%-1.7510%0.3869 ",
        "OLDVERTEXID": 4084678
      },
      "uniquefyingPropertyKeys": [],
      "allowedMutationTypes": [
        "DELETE",
        "EXTEND",
        "CHANGEBRANCH",
        "CHANGELINK",
        "ADDLINK",
        "DELETELINK",
        "DELETECHAIN"
      ],
      "vertexType": "MolecularFragment"
    },
    {
      "lstAPs": [
        {
          "id": 6731011,
          "atomPositionNumber": 0,
          "atomPositionNumberInMol": -1,
          "apClass": {
            "rule": "ATminus",
            "subClass": 0,
            "bndTyp": "ANY"
          },
          "dirVec": {
            "x": 0.0109,
            "y": -0.0071,
            "z": 0.0026
          }
        }
      ],
      "lstSymAPs": [],
      "mol": {
        "atoms": [
          {
            "elSymbol": "ATM",
            "p3d": {
              "x": -0.0096,
              "y": 0.0045,
              "z": -0.0011
            }
          }
        ],
        "bonds": []
      },
      "vertexId": 4087702,
      "buildingBlockId": 79,
      "buildingBlockType": "FRAGMENT",
      "isRCV": true,
      "properties": {
        "ATTACHMENT_POINTS": "1#ATminus:0:ANY:0.0109%-0.0071%0.0026 ",
        "OLDVERTEXID": 4087272
      },
      "uniquefyingPropertyKeys": [],
      "allowedMutationTypes": [
        "DELETE",
        "EXTEND",
        "CHANGEBRANCH",
        "CHANGELINK",
        "ADDLINK",
        "DELETELINK",
        "DELETECHAIN"
      ],
      "vertexType": "MolecularFragment"
    }
  ],
  "gEdges": [
    {
      "srcAPID": 6730984,
      "trgAPID": 6730988,
      "bondType": "SINGLE"
    },
    {
      "srcAPID": 6730986,
      "trgAPID": 6730989,
      "bondType": "SINGLE"
    },
    {
      "srcAPID": 6730987,
      "trgAPID": 6730990,
      "bondType": "SINGLE"
    },
    {
      "srcAPID": 6730983,
      "trgAPID": 6730991,
      "bondType": "SINGLE"
    },
    {
      "srcAPID": 6730982,
      "trgAPID": 6730993,
      "bondType": "SINGLE"
    },
    {
      "srcAPID": 6730985,
      "trgAPID": 6730995,
      "bondType": "SINGLE"
    },
    {
      "srcAPID": 6730992,
      "trgAPID": 6730997,
      "bondType": "SINGLE"
    },
    {
      "srcAPID": 6730994,
      "trgAPID": 6731001,
      "bondType": "SINGLE"
    },
    {
      "srcAPID": 6730996,
      "trgAPID": 6731005,
      "bondType": "SINGLE"
    },
    {
      "srcAPID": 6731004,
      "trgAPID": 6731006,
      "bondType": "SINGLE"
    },
    {
      "srcAPID": 6731003,
      "trgAPID": 6731007,
      "bondType": "SINGLE"
    },
    {
      "srcAPID": 6730998,
      "trgAPID": 6731008,
      "bondType": "SINGLE"
    },
    {
      "srcAPID": 6731000,
      "trgAPID": 6731009,
      "bondType": "SINGLE"
    },
    {
      "srcAPID": 6730999,
      "trgAPID": 6731010,
      "bondType": "SINGLE"
    },
    {
      "srcAPID": 6731002,
      "trgAPID": 6731011,
      "bondType": "SINGLE"
    }
  ],
  "gRings": [
    {
      "vertices": [
        4087689,
        4087688,
        4087687,
        4087692,
        4087695,
        4087702
      ],
      "bndTyp": "SINGLE"
    },
    {
      "vertices": [
        4087690,
        4087688,
        4087687,
        4087691,
        4087694,
        4087699
      ],
      "bndTyp": "SINGLE"
    }
  ],
  "symVertices": [
    {
      "symIds": [
        4087689,
        4087690
      ]
    },
    {
      "symIds": [
        4087691,
        4087692
      ]
    },
    {
      "symIds": [
        4087694,
        4087695
      ]
    },
    {
      "symIds": [
        4087699,
        4087702
      ]
    },
    {
      "symIds": [
        4087698,
        4087701
      ]
    },
    {
      "symIds": [
        4087697,
        4087700
      ]
    }
  ]
}

> <SMILES>
[Pt]12(C#O)[P](OC([H])([H])[H])(C=3C(=C(C(=C(C3S1)[H])[H])[H])[H])C=4C(=C(C(=C(C4S2)[H])[H])[H])[H]

$$$$
