M30041690
  CDK     05082202113D

 52 53  0  0  0  0  0  0  0  0999 V2000
   -1.2108    0.0802    0.6251 Pt  0  0  0  0  0  0  0  0  0  0  0  0
   -3.1193    0.3430    0.9309 C   0  0  0  0  0  0  0  0  0  0  0  0
   -4.2362    0.5184    1.0936 O   0  0  0  0  0  0  0  0  0  0  0  0
    1.0299   -0.0141    0.2804 P   0  0  0  0  0  0  0  0  0  0  0  0
    1.7774   -1.6066   -0.3336 C   0  0  0  0  0  0  0  0  0  0  0  0
    2.4320   -1.2966   -1.4555 C   0  0  0  0  0  0  0  0  0  0  0  0
    3.2233   -2.0966   -2.4339 C   0  0  0  0  0  0  0  0  0  0  0  0
    2.6105   -2.9065   -2.8773 H   0  0  0  0  0  0  0  0  0  0  0  0
    4.0750   -2.6052   -1.9411 H   0  0  0  0  0  0  0  0  0  0  0  0
    3.7096   -1.1005   -3.5155 C   0  0  0  0  0  0  0  0  0  0  0  0
    3.3545   -1.4085   -4.5139 H   0  0  0  0  0  0  0  0  0  0  0  0
    4.8118   -1.0925   -3.5675 H   0  0  0  0  0  0  0  0  0  0  0  0
    3.1719    0.3071   -3.1573 C   0  0  0  0  0  0  0  0  0  0  0  0
    3.9968    1.0363   -3.0362 H   0  0  0  0  0  0  0  0  0  0  0  0
    2.5321    0.7127   -3.9661 H   0  0  0  0  0  0  0  0  0  0  0  0
    2.4002    0.1494   -1.8908 C   0  0  0  0  0  0  0  0  0  0  0  0
    1.7214    0.9993   -1.1181 C   0  0  0  0  0  0  0  0  0  0  0  0
    0.9221   -0.0830    3.0280 C   0  0  0  0  0  0  0  0  0  0  0  0
    1.8213    0.4469    1.9243 C   0  0  0  0  0  0  0  0  0  0  0  0
    0.7870   -1.1768    3.0039 H   0  0  0  0  0  0  0  0  0  0  0  0
    1.3519    0.1454    4.0159 H   0  0  0  0  0  0  0  0  0  0  0  0
   -0.0916    0.3732    3.0210 H   0  0  0  0  0  0  0  0  0  0  0  0
    1.9300    1.5527    1.9896 H   0  0  0  0  0  0  0  0  0  0  0  0
    2.8467    0.0331    2.0002 H   0  0  0  0  0  0  0  0  0  0  0  0
    1.5156    2.0572   -1.2002 H   0  0  0  0  0  0  0  0  0  0  0  0
    1.6479   -2.5459    0.1732 H   0  0  0  0  0  0  0  0  0  0  0  0
   -1.6485   -1.8943    0.9120 O   0  0  0  0  0  0  0  0  0  0  0  0
   -1.7962   -3.9018    0.0299 O   0  0  0  0  0  0  0  0  0  0  0  0
   -1.6989   -2.7120   -0.1636 C   0  0  0  0  0  0  0  0  0  0  0  0
   -2.3772   -2.1638   -3.9294 C   0  0  0  0  0  0  0  0  0  0  0  0
   -2.5274   -2.7446   -2.5279 C   0  0  0  0  0  0  0  0  0  0  0  0
   -1.6200   -2.0303   -1.5147 C   0  0  0  0  0  0  0  0  0  0  0  0
   -3.0382   -2.6770   -4.6388 H   0  0  0  0  0  0  0  0  0  0  0  0
   -1.3536   -2.2675   -4.3063 H   0  0  0  0  0  0  0  0  0  0  0  0
   -3.5835   -2.6755   -2.1985 H   0  0  0  0  0  0  0  0  0  0  0  0
   -2.2894   -3.8303   -2.5335 H   0  0  0  0  0  0  0  0  0  0  0  0
   -0.5669   -2.0684   -1.8684 H   0  0  0  0  0  0  0  0  0  0  0  0
   -1.8884   -0.9509   -1.4559 H   0  0  0  0  0  0  0  0  0  0  0  0
   -2.6328   -1.0982   -3.9594 H   0  0  0  0  0  0  0  0  0  0  0  0
   -0.4645    1.9758    0.3378 O   0  0  0  0  0  0  0  0  0  0  0  0
   -0.0259    4.0048    1.0513 O   0  0  0  0  0  0  0  0  0  0  0  0
   -0.5947    2.9571    1.2553 C   0  0  0  0  0  0  0  0  0  0  0  0
   -2.0904    3.2566    4.8129 C   0  0  0  0  0  0  0  0  0  0  0  0
   -1.1966    3.5683    3.6182 C   0  0  0  0  0  0  0  0  0  0  0  0
   -1.4341    2.5907    2.4589 C   0  0  0  0  0  0  0  0  0  0  0  0
   -1.8971    3.9527    5.6388 H   0  0  0  0  0  0  0  0  0  0  0  0
   -1.9252    2.2439    5.1972 H   0  0  0  0  0  0  0  0  0  0  0  0
   -1.3726    4.6075    3.2661 H   0  0  0  0  0  0  0  0  0  0  0  0
   -0.1301    3.5393    3.9192 H   0  0  0  0  0  0  0  0  0  0  0  0
   -1.1996    1.5455    2.7855 H   0  0  0  0  0  0  0  0  0  0  0  0
   -2.5056    2.6062    2.1728 H   0  0  0  0  0  0  0  0  0  0  0  0
   -3.1538    3.3445    4.5613 H   0  0  0  0  0  0  0  0  0  0  0  0
  2  3  3  0  0  0  0
  1  2  1  0  0  0  0
  5  4  1  0  0  0  0
  6  5  2  0  0  0  0
  7  6  1  0  0  0  0
  8  7  1  0  0  0  0
  9  7  1  0  0  0  0
 10  7  1  0  0  0  0
 11 10  1  0  0  0  0
 12 10  1  0  0  0  0
 13 10  1  0  0  0  0
 13 16  1  0  0  0  0
 14 13  1  0  0  0  0
 15 13  1  0  0  0  0
 16  6  1  0  0  0  0
 16 17  2  0  0  0  0
 17  4  1  0  0  0  0
  1  4  1  0  0  0  0
 18 19  1  0  0  0  0
 18 20  1  0  0  0  0
 18 21  1  0  0  0  0
 18 22  1  0  0  0  0
 19 23  1  0  0  0  0
 19 24  1  0  0  0  0
  4 19  1  0  0  0  0
 17 25  1  0  0  0  0
  5 26  1  0  0  0  0
 28 29  2  0  0  0  0
 29 27  1  0  0  0  0
  1 27  1  0  0  0  0
 30 31  1  0  0  0  0
 31 32  1  0  0  0  0
 30 33  1  0  0  0  0
 30 34  1  0  0  0  0
 31 35  1  0  0  0  0
 31 36  1  0  0  0  0
 32 37  1  0  0  0  0
 32 38  1  0  0  0  0
 29 32  1  0  0  0  0
 30 39  1  0  0  0  0
 41 42  2  0  0  0  0
 42 40  1  0  0  0  0
  1 40  1  0  0  0  0
 43 44  1  0  0  0  0
 44 45  1  0  0  0  0
 43 46  1  0  0  0  0
 43 47  1  0  0  0  0
 44 48  1  0  0  0  0
 44 49  1  0  0  0  0
 45 50  1  0  0  0  0
 45 51  1  0  0  0  0
 42 45  1  0  0  0  0
 43 52  1  0  0  0  0
M  END
> <PM6_ENERGY>
-849.121

> <UID>
AMTFVRPQODZWHY-IRZGCOPJNA-L

> <FITNESS>
1.14224

> <GCODE>
102585

> <GraphENC>
102585 189_1_0,190_47_1,191_79_1,192_79_1,1730_76_1,1454_25_1,1448_76_1,403711_65_1,403757_65_1,5272853_80_1,5272840_80_1, 189_2_190_1_SINGLE_scaff:0_MPhosphole:1,190_3_191_0_SINGLE_LPhospholeSubAlpha:0_ATplus:0,190_2_192_0_SINGLE_LPhospholeSubAlpha:0_ATplus:0,189_1_1730_0_SINGLE_Xlig:0_Xlig:1,190_0_1454_0_SINGLE_LPhospholeSubR:0_SubRS:1,189_0_1448_0_SINGLE_Xlig:0_Xlig:1,1730_1_403711_1_SINGLE_bridge:1_bridge:0,1448_1_403757_1_SINGLE_bridge:1_bridge:0,403757_0_5272853_0_SINGLE_bridge:0_ATminus:0,403711_0_5272840_0_SINGLE_bridge:0_ATminus:0, SymmetricSet [symIds=[191, 192]] SymmetricSet [symIds=[1730, 1448]] SymmetricSet [symIds=[403711, 403757]] SymmetricSet [symIds=[5272853, 5272840]] 

> <GraphJson>
{
  "graphId": 102585,
  "gVertices": [
    {
      "lstAPs": [
        {
          "id": 8682004,
          "atomPositionNumber": 0,
          "atomPositionNumberInMol": 0,
          "apClass": {
            "rule": "Xlig",
            "subClass": 0,
            "bndTyp": "SINGLE"
          },
          "dirVec": {
            "x": -2.3339,
            "y": -0.0087,
            "z": 0.8172
          }
        },
        {
          "id": 8682005,
          "atomPositionNumber": 0,
          "atomPositionNumberInMol": 0,
          "apClass": {
            "rule": "Xlig",
            "subClass": 0,
            "bndTyp": "SINGLE"
          },
          "dirVec": {
            "x": 2.336,
            "y": -5.0E-4,
            "z": 0.829
          }
        },
        {
          "id": 8682006,
          "atomPositionNumber": 0,
          "atomPositionNumberInMol": 0,
          "apClass": {
            "rule": "scaff",
            "subClass": 0,
            "bndTyp": "SINGLE"
          },
          "dirVec": {
            "x": -0.0095,
            "y": 0.0046,
            "z": -1.7113
          }
        }
      ],
      "lstSymAPs": [
        {
          "symIds": [
            0,
            1
          ]
        }
      ],
      "mol": {
        "atoms": [
          {
            "elSymbol": "Pt",
            "p3d": {
              "x": -0.0098,
              "y": 0.0049,
              "z": 0.6289
            }
          },
          {
            "elSymbol": "C",
            "p3d": {
              "x": -6.0E-4,
              "y": 0.0016,
              "z": 2.5609
            }
          },
          {
            "elSymbol": "O",
            "p3d": {
              "x": 0.0025,
              "y": -0.0041,
              "z": 3.6974
            }
          },
          {
            "elSymbol": "Du",
            "p3d": {
              "x": -0.007,
              "y": 1.0013,
              "z": 0.6372
            }
          },
          {
            "elSymbol": "Du",
            "p3d": {
              "x": -0.0014,
              "y": 0.9902,
              "z": 2.5698
            }
          }
        ],
        "bonds": [
          {
            "atomIds": [
              1,
              2
            ],
            "bo": "TRIPLE"
          },
          {
            "atomIds": [
              0,
              1
            ],
            "bo": "SINGLE"
          },
          {
            "atomIds": [
              3,
              0
            ],
            "bo": "SINGLE"
          },
          {
            "atomIds": [
              4,
              1
            ],
            "bo": "SINGLE"
          }
        ]
      },
      "vertexId": 189,
      "buildingBlockId": 0,
      "buildingBlockType": "SCAFFOLD",
      "isRCV": false,
      "properties": {
        "ATTACHMENT_POINTS": "1#Xlig:0:SINGLE:-2.3339%-0.0087%0.8172,Xlig:0:SINGLE:2.3360%-0.0005%0.8290,scaff:0:SINGLE:-0.0095%0.0046%-1.7113 "
      },
      "uniquefyingPropertyKeys": [],
      "allowedMutationTypes": [
        "DELETE",
        "EXTEND",
        "CHANGEBRANCH",
        "CHANGELINK",
        "ADDLINK",
        "DELETELINK",
        "DELETECHAIN"
      ],
      "vertexType": "MolecularFragment"
    },
    {
      "lstAPs": [
        {
          "id": 8682007,
          "atomPositionNumber": 0,
          "atomPositionNumberInMol": 5,
          "apClass": {
            "rule": "LPhospholeSubR",
            "subClass": 0,
            "bndTyp": "SINGLE"
          },
          "dirVec": {
            "x": -1.6223792475758159,
            "y": 0.14132477366600837,
            "z": -2.568290516038104
          }
        },
        {
          "id": 8682008,
          "atomPositionNumber": 0,
          "atomPositionNumberInMol": 5,
          "apClass": {
            "rule": "MPhosphole",
            "subClass": 1,
            "bndTyp": "SINGLE"
          },
          "dirVec": {
            "x": -0.009800513108591112,
            "y": 0.004900513108591157,
            "z": 0.632902589083087
          }
        },
        {
          "id": 8682009,
          "atomPositionNumber": 1,
          "atomPositionNumberInMol": 6,
          "apClass": {
            "rule": "LPhospholeSubAlpha",
            "subClass": 0,
            "bndTyp": "SINGLE"
          },
          "dirVec": {
            "x": 1.1952099210498432,
            "y": 2.669985792653061,
            "z": -2.3085490332157885
          }
        },
        {
          "id": 8682010,
          "atomPositionNumber": 13,
          "atomPositionNumberInMol": 18,
          "apClass": {
            "rule": "LPhospholeSubAlpha",
            "subClass": 0,
            "bndTyp": "SINGLE"
          },
          "dirVec": {
            "x": 0.4502422566953904,
            "y": -2.9393437322817815,
            "z": -2.274792259665105
          }
        }
      ],
      "lstSymAPs": [
        {
          "symIds": [
            2,
            3
          ]
        }
      ],
      "mol": {
        "atoms": [
          {
            "elSymbol": "P",
            "p3d": {
              "x": -0.009499486891408886,
              "y": 0.004599486891408842,
              "z": -1.7153025890830875
            }
          },
          {
            "elSymbol": "C",
            "p3d": {
              "x": 1.0783338161736449,
              "y": 1.178000381546128,
              "z": -2.5560026635246693
            }
          },
          {
            "elSymbol": "C",
            "p3d": {
              "x": 1.8458852836802766,
              "y": 0.46320912540938514,
              "z": -3.4082000202906215
            }
          },
          {
            "elSymbol": "C",
            "p3d": {
              "x": 2.954333768463528,
              "y": 0.824759678550019,
              "z": -4.369950073113815
            }
          },
          {
            "elSymbol": "H",
            "p3d": {
              "x": 3.87757216603835,
              "y": 1.0568856210794946,
              "z": -3.8389821003995683
            }
          },
          {
            "elSymbol": "H",
            "p3d": {
              "x": 2.6695959919847176,
              "y": 1.6799245447101132,
              "z": -4.984360506237548
            }
          },
          {
            "elSymbol": "C",
            "p3d": {
              "x": 3.0992181734513657,
              "y": -0.44366371249945075,
              "z": -5.216608617173867
            }
          },
          {
            "elSymbol": "H",
            "p3d": {
              "x": 4.148808172636624,
              "y": -0.5943341667214755,
              "z": -5.481575799735818
            }
          },
          {
            "elSymbol": "H",
            "p3d": {
              "x": 2.5123560986654963,
              "y": -0.3536916988386168,
              "z": -6.143449165453795
            }
          },
          {
            "elSymbol": "C",
            "p3d": {
              "x": 2.5757596245276853,
              "y": -1.6272292684271492,
              "z": -4.37343739946048
            }
          },
          {
            "elSymbol": "H",
            "p3d": {
              "x": 2.067568958121175,
              "y": -2.3526812231615017,
              "z": -4.994721076977774
            }
          },
          {
            "elSymbol": "H",
            "p3d": {
              "x": 3.4017618724916288,
              "y": -2.12648343394326,
              "z": -3.869328666573094
            }
          },
          {
            "elSymbol": "C",
            "p3d": {
              "x": 1.653574122857636,
              "y": -0.9806588575835472,
              "z": -3.401091918506773
            }
          },
          {
            "elSymbol": "C",
            "p3d": {
              "x": 0.7467262413835863,
              "y": -1.4689933619345572,
              "z": -2.5304198897116112
            }
          }
        ],
        "bonds": [
          {
            "atomIds": [
              1,
              0
            ],
            "bo": "SINGLE"
          },
          {
            "atomIds": [
              2,
              1
            ],
            "bo": "DOUBLE"
          },
          {
            "atomIds": [
              3,
              2
            ],
            "bo": "SINGLE"
          },
          {
            "atomIds": [
              4,
              3
            ],
            "bo": "SINGLE"
          },
          {
            "atomIds": [
              5,
              3
            ],
            "bo": "SINGLE"
          },
          {
            "atomIds": [
              6,
              3
            ],
            "bo": "SINGLE"
          },
          {
            "atomIds": [
              7,
              6
            ],
            "bo": "SINGLE"
          },
          {
            "atomIds": [
              8,
              6
            ],
            "bo": "SINGLE"
          },
          {
            "atomIds": [
              9,
              6
            ],
            "bo": "SINGLE"
          },
          {
            "atomIds": [
              9,
              12
            ],
            "bo": "SINGLE"
          },
          {
            "atomIds": [
              10,
              9
            ],
            "bo": "SINGLE"
          },
          {
            "atomIds": [
              11,
              9
            ],
            "bo": "SINGLE"
          },
          {
            "atomIds": [
              12,
              2
            ],
            "bo": "SINGLE"
          },
          {
            "atomIds": [
              12,
              13
            ],
            "bo": "DOUBLE"
          },
          {
            "atomIds": [
              13,
              0
            ],
            "bo": "SINGLE"
          }
        ]
      },
      "vertexId": 190,
      "buildingBlockId": 46,
      "buildingBlockType": "FRAGMENT",
      "isRCV": false,
      "properties": {
        "ATTACHMENT_POINTS": "1#LPhospholeSubR:0:SINGLE:-1.6224%0.1413%-2.5683,MPhosphole:1:SINGLE:-0.0098%0.0049%0.6329 2#LPhospholeSubAlpha:0:SINGLE:1.1952%2.6700%-2.3085 14#LPhospholeSubAlpha:0:SINGLE:0.4502%-2.9393%-2.2748 "
      },
      "uniquefyingPropertyKeys": [],
      "allowedMutationTypes": [
        "DELETE",
        "EXTEND",
        "CHANGEBRANCH",
        "CHANGELINK",
        "ADDLINK",
        "DELETELINK",
        "DELETECHAIN"
      ],
      "vertexType": "MolecularFragment"
    },
    {
      "lstAPs": [
        {
          "id": 8682011,
          "atomPositionNumber": 0,
          "atomPositionNumberInMol": 19,
          "apClass": {
            "rule": "ATplus",
            "subClass": 0,
            "bndTyp": "ANY"
          },
          "dirVec": {
            "x": 0.4502422566953904,
            "y": -2.9393437322817815,
            "z": -2.274792259665105
          }
        }
      ],
      "lstSymAPs": [],
      "mol": {
        "atoms": [
          {
            "elSymbol": "ATP",
            "p3d": {
              "x": 0.44615185701331184,
              "y": -2.959629214796925,
              "z": -2.2712655289454933
            }
          }
        ],
        "bonds": []
      },
      "vertexId": 191,
      "buildingBlockId": 78,
      "buildingBlockType": "FRAGMENT",
      "isRCV": true,
      "properties": {
        "ATTACHMENT_POINTS": "1#ATplus:0:ANY:0.4502%-2.9393%-2.2748 "
      },
      "uniquefyingPropertyKeys": [],
      "allowedMutationTypes": [
        "DELETE",
        "EXTEND",
        "CHANGEBRANCH",
        "CHANGELINK",
        "ADDLINK",
        "DELETELINK",
        "DELETECHAIN"
      ],
      "vertexType": "MolecularFragment"
    },
    {
      "lstAPs": [
        {
          "id": 8682012,
          "atomPositionNumber": 0,
          "atomPositionNumberInMol": 20,
          "apClass": {
            "rule": "ATplus",
            "subClass": 0,
            "bndTyp": "ANY"
          },
          "dirVec": {
            "x": 1.1952099210498432,
            "y": 2.669985792653061,
            "z": -2.3085490332157885
          }
        }
      ],
      "lstSymAPs": [],
      "mol": {
        "atoms": [
          {
            "elSymbol": "ATP",
            "p3d": {
              "x": 1.19682737639236,
              "y": 2.6906334671859207,
              "z": -2.3051245077596034
            }
          }
        ],
        "bonds": []
      },
      "vertexId": 192,
      "buildingBlockId": 78,
      "buildingBlockType": "FRAGMENT",
      "isRCV": true,
      "properties": {
        "ATTACHMENT_POINTS": "1#ATplus:0:ANY:1.1952%2.6700%-2.3085 "
      },
      "uniquefyingPropertyKeys": [],
      "allowedMutationTypes": [
        "DELETE",
        "EXTEND",
        "CHANGEBRANCH",
        "CHANGELINK",
        "ADDLINK",
        "DELETELINK",
        "DELETECHAIN"
      ],
      "vertexType": "MolecularFragment"
    },
    {
      "lstAPs": [
        {
          "id": 8682013,
          "atomPositionNumber": 0,
          "atomPositionNumberInMol": 28,
          "apClass": {
            "rule": "Xlig",
            "subClass": 1,
            "bndTyp": "SINGLE"
          },
          "dirVec": {
            "x": 2.9612,
            "y": 0.482,
            "z": 3.1597
          }
        },
        {
          "id": 8682014,
          "atomPositionNumber": 2,
          "atomPositionNumberInMol": 30,
          "apClass": {
            "rule": "bridge",
            "subClass": 1,
            "bndTyp": "SINGLE"
          },
          "dirVec": {
            "x": 0.31479999999999997,
            "y": 0.7222,
            "z": 2.0817
          }
        }
      ],
      "lstSymAPs": [],
      "mol": {
        "atoms": [
          {
            "elSymbol": "O",
            "p3d": {
              "x": 2.5349,
              "y": 1.3185,
              "z": 1.3621
            }
          },
          {
            "elSymbol": "O",
            "p3d": {
              "x": 0.8537,
              "y": 1.7439,
              "z": 0.0154
            }
          },
          {
            "elSymbol": "C",
            "p3d": {
              "x": 1.2704,
              "y": 1.2787,
              "z": 1.0674
            }
          }
        ],
        "bonds": [
          {
            "atomIds": [
              1,
              2
            ],
            "bo": "DOUBLE"
          },
          {
            "atomIds": [
              2,
              0
            ],
            "bo": "SINGLE"
          }
        ]
      },
      "vertexId": 1730,
      "buildingBlockId": 75,
      "buildingBlockType": "FRAGMENT",
      "isRCV": false,
      "properties": {
        "ATTACHMENT_POINTS": "1#Xlig:1:SINGLE:2.9612%0.4820%3.1597 3#bridge:1:SINGLE:0.3148%0.7222%2.0817 "
      },
      "uniquefyingPropertyKeys": [],
      "allowedMutationTypes": [
        "DELETE",
        "EXTEND",
        "CHANGEBRANCH",
        "CHANGELINK",
        "ADDLINK",
        "DELETELINK",
        "DELETECHAIN"
      ],
      "vertexType": "MolecularFragment"
    },
    {
      "lstAPs": [
        {
          "id": 8682015,
          "atomPositionNumber": 1,
          "atomPositionNumberInMol": 22,
          "apClass": {
            "rule": "SubRS",
            "subClass": 1,
            "bndTyp": "SINGLE"
          },
          "dirVec": {
            "x": 0.2985,
            "y": 0.384,
            "z": -0.6258
          }
        }
      ],
      "lstSymAPs": [],
      "mol": {
        "atoms": [
          {
            "elSymbol": "C",
            "p3d": {
              "x": -1.0244,
              "y": -0.2225,
              "z": 1.3991
            }
          },
          {
            "elSymbol": "C",
            "p3d": {
              "x": 0.3973,
              "y": -0.042,
              "z": 0.8195
            }
          },
          {
            "elSymbol": "H",
            "p3d": {
              "x": -1.5635,
              "y": -0.9908,
              "z": 0.8263
            }
          },
          {
            "elSymbol": "H",
            "p3d": {
              "x": -0.941,
              "y": -0.535,
              "z": 2.446
            }
          },
          {
            "elSymbol": "H",
            "p3d": {
              "x": -1.5586,
              "y": 0.7335,
              "z": 1.3382
            }
          },
          {
            "elSymbol": "H",
            "p3d": {
              "x": 0.9335,
              "y": 0.7221,
              "z": 1.4011
            }
          },
          {
            "elSymbol": "H",
            "p3d": {
              "x": 0.927,
              "y": -1.0102,
              "z": 0.9001
            }
          }
        ],
        "bonds": [
          {
            "atomIds": [
              0,
              1
            ],
            "bo": "SINGLE"
          },
          {
            "atomIds": [
              0,
              2
            ],
            "bo": "SINGLE"
          },
          {
            "atomIds": [
              0,
              3
            ],
            "bo": "SINGLE"
          },
          {
            "atomIds": [
              0,
              4
            ],
            "bo": "SINGLE"
          },
          {
            "atomIds": [
              1,
              5
            ],
            "bo": "SINGLE"
          },
          {
            "atomIds": [
              1,
              6
            ],
            "bo": "SINGLE"
          }
        ]
      },
      "vertexId": 1454,
      "buildingBlockId": 24,
      "buildingBlockType": "FRAGMENT",
      "isRCV": false,
      "properties": {
        "ATTACHMENT_POINTS": "2#SubRS:1:SINGLE:0.2985%0.3840%-0.6258 "
      },
      "uniquefyingPropertyKeys": [],
      "allowedMutationTypes": [
        "DELETE",
        "EXTEND",
        "CHANGEBRANCH",
        "CHANGELINK",
        "ADDLINK",
        "DELETELINK",
        "DELETECHAIN"
      ],
      "vertexType": "MolecularFragment"
    },
    {
      "lstAPs": [
        {
          "id": 8682016,
          "atomPositionNumber": 0,
          "atomPositionNumberInMol": 41,
          "apClass": {
            "rule": "Xlig",
            "subClass": 1,
            "bndTyp": "SINGLE"
          },
          "dirVec": {
            "x": 2.9612,
            "y": 0.482,
            "z": 3.1597
          }
        },
        {
          "id": 8682017,
          "atomPositionNumber": 2,
          "atomPositionNumberInMol": 43,
          "apClass": {
            "rule": "bridge",
            "subClass": 1,
            "bndTyp": "SINGLE"
          },
          "dirVec": {
            "x": 0.31479999999999997,
            "y": 0.7222,
            "z": 2.0817
          }
        }
      ],
      "lstSymAPs": [],
      "mol": {
        "atoms": [
          {
            "elSymbol": "O",
            "p3d": {
              "x": 2.5349,
              "y": 1.3185,
              "z": 1.3621
            }
          },
          {
            "elSymbol": "O",
            "p3d": {
              "x": 0.8537,
              "y": 1.7439,
              "z": 0.0154
            }
          },
          {
            "elSymbol": "C",
            "p3d": {
              "x": 1.2704,
              "y": 1.2787,
              "z": 1.0674
            }
          }
        ],
        "bonds": [
          {
            "atomIds": [
              1,
              2
            ],
            "bo": "DOUBLE"
          },
          {
            "atomIds": [
              2,
              0
            ],
            "bo": "SINGLE"
          }
        ]
      },
      "vertexId": 1448,
      "buildingBlockId": 75,
      "buildingBlockType": "FRAGMENT",
      "isRCV": false,
      "properties": {
        "ATTACHMENT_POINTS": "1#Xlig:1:SINGLE:2.9612%0.4820%3.1597 3#bridge:1:SINGLE:0.3148%0.7222%2.0817 "
      },
      "uniquefyingPropertyKeys": [],
      "allowedMutationTypes": [
        "DELETE",
        "EXTEND",
        "CHANGEBRANCH",
        "CHANGELINK",
        "ADDLINK",
        "DELETELINK",
        "DELETECHAIN"
      ],
      "vertexType": "MolecularFragment"
    },
    {
      "lstAPs": [
        {
          "id": 8682018,
          "atomPositionNumber": 0,
          "atomPositionNumberInMol": 31,
          "apClass": {
            "rule": "bridge",
            "subClass": 0,
            "bndTyp": "SINGLE"
          },
          "dirVec": {
            "x": -1.2321,
            "y": -0.7501,
            "z": -0.255
          }
        },
        {
          "id": 8682019,
          "atomPositionNumber": 2,
          "atomPositionNumberInMol": 33,
          "apClass": {
            "rule": "bridge",
            "subClass": 0,
            "bndTyp": "SINGLE"
          },
          "dirVec": {
            "x": 1.2657,
            "y": -0.692,
            "z": -0.255
          }
        }
      ],
      "lstSymAPs": [
        {
          "symIds": [
            0,
            1
          ]
        }
      ],
      "mol": {
        "atoms": [
          {
            "elSymbol": "C",
            "p3d": {
              "x": -1.2657,
              "y": 0.692,
              "z": 0.255
            }
          },
          {
            "elSymbol": "C",
            "p3d": {
              "x": -0.0335,
              "y": 1.4421,
              "z": -0.255
            }
          },
          {
            "elSymbol": "C",
            "p3d": {
              "x": 1.2321,
              "y": 0.7501,
              "z": 0.255
            }
          },
          {
            "elSymbol": "H",
            "p3d": {
              "x": -2.1673,
              "y": 1.1851,
              "z": -0.1083
            }
          },
          {
            "elSymbol": "H",
            "p3d": {
              "x": -1.2657,
              "y": 0.692,
              "z": 1.345
            }
          },
          {
            "elSymbol": "H",
            "p3d": {
              "x": -0.0335,
              "y": 1.4421,
              "z": -1.345
            }
          },
          {
            "elSymbol": "H",
            "p3d": {
              "x": -0.0574,
              "y": 2.4695,
              "z": 0.1083
            }
          },
          {
            "elSymbol": "H",
            "p3d": {
              "x": 2.11,
              "y": 1.2844,
              "z": -0.1083
            }
          },
          {
            "elSymbol": "H",
            "p3d": {
              "x": 1.2321,
              "y": 0.7501,
              "z": 1.345
            }
          }
        ],
        "bonds": [
          {
            "atomIds": [
              0,
              1
            ],
            "bo": "SINGLE"
          },
          {
            "atomIds": [
              1,
              2
            ],
            "bo": "SINGLE"
          },
          {
            "atomIds": [
              0,
              3
            ],
            "bo": "SINGLE"
          },
          {
            "atomIds": [
              0,
              4
            ],
            "bo": "SINGLE"
          },
          {
            "atomIds": [
              1,
              5
            ],
            "bo": "SINGLE"
          },
          {
            "atomIds": [
              1,
              6
            ],
            "bo": "SINGLE"
          },
          {
            "atomIds": [
              2,
              7
            ],
            "bo": "SINGLE"
          },
          {
            "atomIds": [
              2,
              8
            ],
            "bo": "SINGLE"
          }
        ]
      },
      "vertexId": 403711,
      "buildingBlockId": 64,
      "buildingBlockType": "FRAGMENT",
      "isRCV": false,
      "properties": {
        "ATTACHMENT_POINTS": "1#bridge:0:SINGLE:-1.2321%-0.7501%-0.2550 3#bridge:0:SINGLE:1.2657%-0.6920%-0.2550 "
      },
      "uniquefyingPropertyKeys": [],
      "allowedMutationTypes": [
        "DELETE",
        "EXTEND",
        "CHANGEBRANCH",
        "CHANGELINK",
        "ADDLINK",
        "DELETELINK",
        "DELETECHAIN"
      ],
      "vertexType": "MolecularFragment"
    },
    {
      "lstAPs": [
        {
          "id": 8682020,
          "atomPositionNumber": 0,
          "atomPositionNumberInMol": 44,
          "apClass": {
            "rule": "bridge",
            "subClass": 0,
            "bndTyp": "SINGLE"
          },
          "dirVec": {
            "x": -1.2321,
            "y": -0.7501,
            "z": -0.255
          }
        },
        {
          "id": 8682021,
          "atomPositionNumber": 2,
          "atomPositionNumberInMol": 46,
          "apClass": {
            "rule": "bridge",
            "subClass": 0,
            "bndTyp": "SINGLE"
          },
          "dirVec": {
            "x": 1.2657,
            "y": -0.692,
            "z": -0.255
          }
        }
      ],
      "lstSymAPs": [
        {
          "symIds": [
            0,
            1
          ]
        }
      ],
      "mol": {
        "atoms": [
          {
            "elSymbol": "C",
            "p3d": {
              "x": -1.2657,
              "y": 0.692,
              "z": 0.255
            }
          },
          {
            "elSymbol": "C",
            "p3d": {
              "x": -0.0335,
              "y": 1.4421,
              "z": -0.255
            }
          },
          {
            "elSymbol": "C",
            "p3d": {
              "x": 1.2321,
              "y": 0.7501,
              "z": 0.255
            }
          },
          {
            "elSymbol": "H",
            "p3d": {
              "x": -2.1673,
              "y": 1.1851,
              "z": -0.1083
            }
          },
          {
            "elSymbol": "H",
            "p3d": {
              "x": -1.2657,
              "y": 0.692,
              "z": 1.345
            }
          },
          {
            "elSymbol": "H",
            "p3d": {
              "x": -0.0335,
              "y": 1.4421,
              "z": -1.345
            }
          },
          {
            "elSymbol": "H",
            "p3d": {
              "x": -0.0574,
              "y": 2.4695,
              "z": 0.1083
            }
          },
          {
            "elSymbol": "H",
            "p3d": {
              "x": 2.11,
              "y": 1.2844,
              "z": -0.1083
            }
          },
          {
            "elSymbol": "H",
            "p3d": {
              "x": 1.2321,
              "y": 0.7501,
              "z": 1.345
            }
          }
        ],
        "bonds": [
          {
            "atomIds": [
              0,
              1
            ],
            "bo": "SINGLE"
          },
          {
            "atomIds": [
              1,
              2
            ],
            "bo": "SINGLE"
          },
          {
            "atomIds": [
              0,
              3
            ],
            "bo": "SINGLE"
          },
          {
            "atomIds": [
              0,
              4
            ],
            "bo": "SINGLE"
          },
          {
            "atomIds": [
              1,
              5
            ],
            "bo": "SINGLE"
          },
          {
            "atomIds": [
              1,
              6
            ],
            "bo": "SINGLE"
          },
          {
            "atomIds": [
              2,
              7
            ],
            "bo": "SINGLE"
          },
          {
            "atomIds": [
              2,
              8
            ],
            "bo": "SINGLE"
          }
        ]
      },
      "vertexId": 403757,
      "buildingBlockId": 64,
      "buildingBlockType": "FRAGMENT",
      "isRCV": false,
      "properties": {
        "ATTACHMENT_POINTS": "1#bridge:0:SINGLE:-1.2321%-0.7501%-0.2550 3#bridge:0:SINGLE:1.2657%-0.6920%-0.2550 "
      },
      "uniquefyingPropertyKeys": [],
      "allowedMutationTypes": [
        "DELETE",
        "EXTEND",
        "CHANGEBRANCH",
        "CHANGELINK",
        "ADDLINK",
        "DELETELINK",
        "DELETECHAIN"
      ],
      "vertexType": "MolecularFragment"
    },
    {
      "lstAPs": [
        {
          "id": 8682048,
          "atomPositionNumber": 0,
          "atomPositionNumberInMol": 53,
          "apClass": {
            "rule": "ATminus",
            "subClass": 0,
            "bndTyp": "ANY"
          },
          "dirVec": {
            "x": 0.0109,
            "y": -0.0071,
            "z": 0.0026
          }
        }
      ],
      "lstSymAPs": [],
      "mol": {
        "atoms": [
          {
            "elSymbol": "ATM",
            "p3d": {
              "x": -0.0096,
              "y": 0.0045,
              "z": -0.0011
            }
          }
        ],
        "bonds": []
      },
      "vertexId": 5272853,
      "buildingBlockId": 79,
      "buildingBlockType": "FRAGMENT",
      "isRCV": true,
      "properties": {
        "ATTACHMENT_POINTS": "1#ATminus:0:ANY:0.0109%-0.0071%0.0026 "
      },
      "uniquefyingPropertyKeys": [],
      "allowedMutationTypes": [
        "DELETE",
        "EXTEND",
        "CHANGEBRANCH",
        "CHANGELINK",
        "ADDLINK",
        "DELETELINK",
        "DELETECHAIN"
      ],
      "vertexType": "MolecularFragment"
    },
    {
      "lstAPs": [
        {
          "id": 8682049,
          "atomPositionNumber": 0,
          "atomPositionNumberInMol": 40,
          "apClass": {
            "rule": "ATminus",
            "subClass": 0,
            "bndTyp": "ANY"
          },
          "dirVec": {
            "x": 0.0109,
            "y": -0.0071,
            "z": 0.0026
          }
        }
      ],
      "lstSymAPs": [],
      "mol": {
        "atoms": [
          {
            "elSymbol": "ATM",
            "p3d": {
              "x": -0.0096,
              "y": 0.0045,
              "z": -0.0011
            }
          }
        ],
        "bonds": []
      },
      "vertexId": 5272840,
      "buildingBlockId": 79,
      "buildingBlockType": "FRAGMENT",
      "isRCV": true,
      "properties": {
        "ATTACHMENT_POINTS": "1#ATminus:0:ANY:0.0109%-0.0071%0.0026 "
      },
      "uniquefyingPropertyKeys": [],
      "allowedMutationTypes": [
        "DELETE",
        "EXTEND",
        "CHANGEBRANCH",
        "CHANGELINK",
        "ADDLINK",
        "DELETELINK",
        "DELETECHAIN"
      ],
      "vertexType": "MolecularFragment"
    }
  ],
  "gEdges": [
    {
      "srcAPID": 8682006,
      "trgAPID": 8682008,
      "bondType": "SINGLE"
    },
    {
      "srcAPID": 8682010,
      "trgAPID": 8682011,
      "bondType": "SINGLE"
    },
    {
      "srcAPID": 8682009,
      "trgAPID": 8682012,
      "bondType": "SINGLE"
    },
    {
      "srcAPID": 8682005,
      "trgAPID": 8682013,
      "bondType": "SINGLE"
    },
    {
      "srcAPID": 8682007,
      "trgAPID": 8682015,
      "bondType": "SINGLE"
    },
    {
      "srcAPID": 8682004,
      "trgAPID": 8682016,
      "bondType": "SINGLE"
    },
    {
      "srcAPID": 8682014,
      "trgAPID": 8682019,
      "bondType": "SINGLE"
    },
    {
      "srcAPID": 8682017,
      "trgAPID": 8682021,
      "bondType": "SINGLE"
    },
    {
      "srcAPID": 8682020,
      "trgAPID": 8682048,
      "bondType": "SINGLE"
    },
    {
      "srcAPID": 8682018,
      "trgAPID": 8682049,
      "bondType": "SINGLE"
    }
  ],
  "gRings": [],
  "symVertices": [
    {
      "symIds": [
        191,
        192
      ]
    },
    {
      "symIds": [
        1730,
        1448
      ]
    },
    {
      "symIds": [
        403711,
        403757
      ]
    },
    {
      "symIds": [
        5272853,
        5272840
      ]
    }
  ]
}

> <SMILES>
[Pt](C#O)([P]1(C(=C2C([H])([H])C([H])([H])C(C2=C1[H])([H])[H])[H])C(C([H])([H])[H])([H])[H])(OC(=O)C(C(C([H])([H])[H])([H])[H])([H])[H])OC(=O)C(C(C([H])([H])[H])([H])[H])([H])[H]

$$$$
