M30091016
  CDK     05082207043D

 45 49  0  0  0  0  0  0  0  0999 V2000
   -2.0323   -0.0651    0.6938 Pt  0  0  0  0  0  0  0  0  0  0  0  0
   -3.9707   -0.1773    0.9483 C   0  0  0  0  0  0  0  0  0  0  0  0
   -5.1007   -0.2603    1.0859 O   0  0  0  0  0  0  0  0  0  0  0  0
    0.1951    0.0070    0.3800 P   0  0  0  0  0  0  0  0  0  0  0  0
    0.7158    1.1909   -0.7847 N   0  0  1  0  0  0  0  0  0  0  0  0
    1.6660    0.5566   -1.6455 C   0  0  0  0  0  0  0  0  0  0  0  0
    2.2243    1.1611   -2.3470 H   0  0  0  0  0  0  0  0  0  0  0  0
    1.7459   -0.8001   -1.4964 C   0  0  0  0  0  0  0  0  0  0  0  0
    2.3855   -1.4690   -2.0560 H   0  0  0  0  0  0  0  0  0  0  0  0
    0.8834   -1.3381   -0.4908 N   0  0  2  0  0  0  0  0  0  0  0  0
    0.0023    0.2460    3.1002 C   0  0  0  0  0  0  0  0  0  0  0  0
    1.0761    0.2416    2.0261 C   0  0  0  0  0  0  0  0  0  0  0  0
   -0.5142   -0.7268    3.1960 H   0  0  0  0  0  0  0  0  0  0  0  0
    0.4453    0.4495    4.0869 H   0  0  0  0  0  0  0  0  0  0  0  0
   -0.7766    1.0144    2.9507 H   0  0  0  0  0  0  0  0  0  0  0  0
    1.6620    1.1813    2.0252 H   0  0  0  0  0  0  0  0  0  0  0  0
    1.8102   -0.5722    2.1929 H   0  0  0  0  0  0  0  0  0  0  0  0
   -2.3639    2.2164    0.2319 S   0  0  0  0  0  0  0  0  0  0  0  0
   -0.7049    2.9630    0.3061 C   0  0  2  0  0  0  0  0  0  0  0  0
   -0.7852    4.4895    0.1884 C   0  0  0  0  0  0  0  0  0  0  0  0
    0.5820    4.9255   -0.3887 C   0  0  0  0  0  0  0  0  0  0  0  0
    1.2760    3.6595   -0.9333 C   0  0  0  0  0  0  0  0  0  0  0  0
    0.1817    2.5652   -0.9030 C   0  0  1  0  0  0  0  0  0  0  0  0
   -0.2339    2.7048    1.2818 H   0  0  0  0  0  0  0  0  0  0  0  0
   -1.6093    4.8045   -0.4802 H   0  0  0  0  0  0  0  0  0  0  0  0
   -0.9910    4.9627    1.1630 H   0  0  0  0  0  0  0  0  0  0  0  0
    1.2012    5.4063    0.3868 H   0  0  0  0  0  0  0  0  0  0  0  0
    0.4453    5.6762   -1.1851 H   0  0  0  0  0  0  0  0  0  0  0  0
    2.1408    3.3797   -0.3081 H   0  0  0  0  0  0  0  0  0  0  0  0
    1.6665    3.8123   -1.9509 H   0  0  0  0  0  0  0  0  0  0  0  0
   -0.4201    2.6165   -1.8538 H   0  0  0  0  0  0  0  0  0  0  0  0
   -1.9358   -2.3712    1.1258 S   0  0  0  0  0  0  0  0  0  0  0  0
   -1.0390   -2.9410   -0.3575 C   0  0  2  0  0  0  0  0  0  0  0  0
   -1.2070   -4.4512   -0.5401 C   0  0  0  0  0  0  0  0  0  0  0  0
    0.1061   -4.9525   -1.1832 C   0  0  0  0  0  0  0  0  0  0  0  0
    1.1000   -3.7731   -1.1878 C   0  0  0  0  0  0  0  0  0  0  0  0
    0.4980   -2.7397   -0.2115 C   0  0  1  0  0  0  0  0  0  0  0  0
   -1.4327   -2.3932   -1.2451 H   0  0  0  0  0  0  0  0  0  0  0  0
   -1.3851   -4.9650    0.4241 H   0  0  0  0  0  0  0  0  0  0  0  0
   -2.0836   -4.6845   -1.1686 H   0  0  0  0  0  0  0  0  0  0  0  0
   -0.0703   -5.3173   -2.2090 H   0  0  0  0  0  0  0  0  0  0  0  0
    0.5126   -5.8074   -0.6163 H   0  0  0  0  0  0  0  0  0  0  0  0
    1.1948   -3.3571   -2.2070 H   0  0  0  0  0  0  0  0  0  0  0  0
    2.1102   -4.0840   -0.8797 H   0  0  0  0  0  0  0  0  0  0  0  0
    0.8289   -2.9846    0.8353 H   0  0  0  0  0  0  0  0  0  0  0  0
  2  3  3  0  0  0  0
  1  2  1  0  0  0  0
  5  4  1  0  0  0  0
  6  5  1  0  0  0  0
  7  6  1  0  0  0  0
  8  6  2  0  0  0  0
  8 10  1  0  0  0  0
  9  8  1  0  0  0  0
 10  4  1  0  0  0  0
  1  4  1  0  0  0  0
 11 12  1  0  0  0  0
 11 13  1  0  0  0  0
 11 14  1  0  0  0  0
 11 15  1  0  0  0  0
 12 16  1  0  0  0  0
 12 17  1  0  0  0  0
  4 12  1  0  0  0  0
  1 18  1  0  0  0  0
 19 20  1  0  0  0  0
 20 21  1  0  0  0  0
 21 22  1  0  0  0  0
 22 23  1  0  0  0  0
 19 23  1  0  0  0  0
 19 24  1  0  0  0  0
 20 25  1  0  0  0  0
 20 26  1  0  0  0  0
 21 27  1  0  0  0  0
 21 28  1  0  0  0  0
 22 29  1  0  0  0  0
 22 30  1  0  0  0  0
 23 31  1  0  0  0  0
 18 19  1  0  0  0  0
  1 32  1  0  0  0  0
 33 34  1  0  0  0  0
 34 35  1  0  0  0  0
 35 36  1  0  0  0  0
 36 37  1  0  0  0  0
 33 37  1  0  0  0  0
 33 38  1  0  0  0  0
 34 39  1  0  0  0  0
 34 40  1  0  0  0  0
 35 41  1  0  0  0  0
 35 42  1  0  0  0  0
 36 43  1  0  0  0  0
 36 44  1  0  0  0  0
 37 45  1  0  0  0  0
 32 33  1  0  0  0  0
 10 37  1  0  0  0  0
  5 23  1  0  0  0  0
M  END
> <PM6_ENERGY>
-163.396

> <UID>
BIULAIKTVPMSHX-VJMFRTMONA-L

> <FITNESS>
1.14137

> <GCODE>
200757

> <GraphENC>
200757 11130722_1_0,11130723_1_1,11130724_79_1,11130725_79_1,11130726_25_1,11130727_74_1,11130728_74_1,11130729_70_1,11130730_70_1,11130731_80_1,11130732_80_1, 11130722_2_11130723_1_SINGLE_scaff:0_MBisAminoPhosphine:1,11130723_2_11130724_0_SINGLE_LCycloBisAminoPhospholeSubN:0_ATplus:0,11130723_3_11130725_0_SINGLE_LCycloBisAminoPhospholeSubN:0_ATplus:0,11130723_0_11130726_0_SINGLE_LBisAminoPhosphineSubR:0_SubRS:1,11130722_0_11130727_0_SINGLE_Xlig:0_Xlig:1,11130722_1_11130728_0_SINGLE_Xlig:0_Xlig:1,11130728_1_11130729_0_SINGLE_bridge:1_bridge:0,11130727_1_11130730_0_SINGLE_bridge:1_bridge:0,11130730_1_11130731_0_SINGLE_bridge:0_ATminus:0,11130729_1_11130732_0_SINGLE_bridge:0_ATminus:0, DENOPTIMRing [vertices=[11130724_79_1, 11130723_1_1, 11130722_1_0, 11130727_74_1, 11130730_70_1, 11130731_80_1]] DENOPTIMRing [vertices=[11130725_79_1, 11130723_1_1, 11130722_1_0, 11130728_74_1, 11130729_70_1, 11130732_80_1]] SymmetricSet [symIds=[11130724, 11130725]] SymmetricSet [symIds=[11130727, 11130728]] SymmetricSet [symIds=[11130729, 11130730]] SymmetricSet [symIds=[11130731, 11130732]] 

> <GraphJson>
{
  "graphId": 200757,
  "gVertices": [
    {
      "lstAPs": [
        {
          "id": 18635236,
          "atomPositionNumber": 0,
          "atomPositionNumberInMol": -1,
          "apClass": {
            "rule": "Xlig",
            "subClass": 0,
            "bndTyp": "SINGLE"
          },
          "dirVec": {
            "x": -2.3339,
            "y": -0.0087,
            "z": 0.8172
          }
        },
        {
          "id": 18635237,
          "atomPositionNumber": 0,
          "atomPositionNumberInMol": -1,
          "apClass": {
            "rule": "Xlig",
            "subClass": 0,
            "bndTyp": "SINGLE"
          },
          "dirVec": {
            "x": 2.336,
            "y": -5.0E-4,
            "z": 0.829
          }
        },
        {
          "id": 18635238,
          "atomPositionNumber": 0,
          "atomPositionNumberInMol": -1,
          "apClass": {
            "rule": "scaff",
            "subClass": 0,
            "bndTyp": "SINGLE"
          },
          "dirVec": {
            "x": -0.0095,
            "y": 0.0046,
            "z": -1.7113
          }
        }
      ],
      "lstSymAPs": [
        {
          "symIds": [
            0,
            1
          ]
        }
      ],
      "mol": {
        "atoms": [
          {
            "elSymbol": "Pt",
            "p3d": {
              "x": -0.0098,
              "y": 0.0049,
              "z": 0.6289
            }
          },
          {
            "elSymbol": "C",
            "p3d": {
              "x": -6.0E-4,
              "y": 0.0016,
              "z": 2.5609
            }
          },
          {
            "elSymbol": "O",
            "p3d": {
              "x": 0.0025,
              "y": -0.0041,
              "z": 3.6974
            }
          },
          {
            "elSymbol": "Du",
            "p3d": {
              "x": -0.007,
              "y": 1.0013,
              "z": 0.6372
            }
          },
          {
            "elSymbol": "Du",
            "p3d": {
              "x": -0.0014,
              "y": 0.9902,
              "z": 2.5698
            }
          }
        ],
        "bonds": [
          {
            "atomIds": [
              1,
              2
            ],
            "bo": "TRIPLE"
          },
          {
            "atomIds": [
              0,
              1
            ],
            "bo": "SINGLE"
          },
          {
            "atomIds": [
              3,
              0
            ],
            "bo": "SINGLE"
          },
          {
            "atomIds": [
              4,
              1
            ],
            "bo": "SINGLE"
          }
        ]
      },
      "vertexId": 11130722,
      "buildingBlockId": 0,
      "buildingBlockType": "SCAFFOLD",
      "isRCV": false,
      "properties": {
        "ATTACHMENT_POINTS": "1#Xlig:0:SINGLE:-2.3339%-0.0087%0.8172,Xlig:0:SINGLE:2.3360%-0.0005%0.8290,scaff:0:SINGLE:-0.0095%0.0046%-1.7113 ",
        "OLDVERTEXID": 157
      },
      "uniquefyingPropertyKeys": [],
      "allowedMutationTypes": [
        "DELETE",
        "EXTEND",
        "CHANGEBRANCH",
        "CHANGELINK",
        "ADDLINK",
        "DELETELINK",
        "DELETECHAIN"
      ],
      "vertexType": "MolecularFragment"
    },
    {
      "lstAPs": [
        {
          "id": 18635239,
          "atomPositionNumber": 0,
          "atomPositionNumberInMol": -1,
          "apClass": {
            "rule": "LBisAminoPhosphineSubR",
            "subClass": 0,
            "bndTyp": "SINGLE"
          },
          "dirVec": {
            "x": -1.792186992952222,
            "y": 0.022200467215305136,
            "z": -2.140294607879978
          }
        },
        {
          "id": 18635240,
          "atomPositionNumber": 0,
          "atomPositionNumberInMol": -1,
          "apClass": {
            "rule": "MBisAminoPhosphine",
            "subClass": 1,
            "bndTyp": "SINGLE"
          },
          "dirVec": {
            "x": -0.009790620829534021,
            "y": 0.00489062082953414,
            "z": 0.5557362175858562
          }
        },
        {
          "id": 18635241,
          "atomPositionNumber": 1,
          "atomPositionNumberInMol": -1,
          "apClass": {
            "rule": "LCycloBisAminoPhospholeSubN",
            "subClass": 0,
            "bndTyp": "SINGLE"
          },
          "dirVec": {
            "x": 1.2949089956167246,
            "y": -2.42225253179424,
            "z": -2.300535997647931
          }
        },
        {
          "id": 18635242,
          "atomPositionNumber": 6,
          "atomPositionNumberInMol": -1,
          "apClass": {
            "rule": "LCycloBisAminoPhospholeSubN",
            "subClass": 0,
            "bndTyp": "SINGLE"
          },
          "dirVec": {
            "x": 0.6027963924718436,
            "y": 2.713740576254344,
            "z": -1.9339348129178737
          }
        }
      ],
      "lstSymAPs": [
        {
          "symIds": [
            2,
            3
          ]
        }
      ],
      "mol": {
        "atoms": [
          {
            "elSymbol": "P",
            "p3d": {
              "x": -0.009509379170465976,
              "y": 0.0046093791704658596,
              "z": -1.6381362175858563
            }
          },
          {
            "elSymbol": "N",
            "p3d": {
              "x": 0.8794215696247446,
              "y": -1.0576812892978638,
              "z": -2.591373603528704
            }
          },
          {
            "elSymbol": "C",
            "p3d": {
              "x": 1.4784130515805665,
              "y": -0.3502497342485035,
              "z": -3.6667175296587655
            }
          },
          {
            "elSymbol": "H",
            "p3d": {
              "x": 2.002763870919993,
              "y": -0.8376805256483705,
              "z": -4.485505293278479
            }
          },
          {
            "elSymbol": "C",
            "p3d": {
              "x": 1.3489654149504855,
              "y": 0.9625869625862175,
              "z": -3.5719563729806016
            }
          },
          {
            "elSymbol": "H",
            "p3d": {
              "x": 1.7691178283110074,
              "y": 1.6534842558611083,
              "z": -4.288163158547981
            }
          },
          {
            "elSymbol": "N",
            "p3d": {
              "x": 0.6093348110301025,
              "y": 1.3523318453165212,
              "z": -2.4364231475178193
            }
          }
        ],
        "bonds": [
          {
            "atomIds": [
              1,
              0
            ],
            "bo": "SINGLE"
          },
          {
            "atomIds": [
              2,
              1
            ],
            "bo": "SINGLE"
          },
          {
            "atomIds": [
              3,
              2
            ],
            "bo": "SINGLE"
          },
          {
            "atomIds": [
              4,
              2
            ],
            "bo": "DOUBLE"
          },
          {
            "atomIds": [
              4,
              6
            ],
            "bo": "SINGLE"
          },
          {
            "atomIds": [
              5,
              4
            ],
            "bo": "SINGLE"
          },
          {
            "atomIds": [
              6,
              0
            ],
            "bo": "SINGLE"
          }
        ]
      },
      "vertexId": 11130723,
      "buildingBlockId": 0,
      "buildingBlockType": "FRAGMENT",
      "isRCV": false,
      "properties": {
        "ATTACHMENT_POINTS": "1#LBisAminoPhosphineSubR:0:SINGLE:-1.7922%0.0222%-2.1403,MBisAminoPhosphine:1:SINGLE:-0.0098%0.0049%0.5557 2#LCycloBisAminoPhospholeSubN:0:SINGLE:1.2949%-2.4223%-2.3005 7#LCycloBisAminoPhospholeSubN:0:SINGLE:0.6028%2.7137%-1.9339 ",
        "OLDVERTEXID": 158
      },
      "uniquefyingPropertyKeys": [],
      "allowedMutationTypes": [
        "DELETE",
        "EXTEND",
        "CHANGEBRANCH",
        "CHANGELINK",
        "ADDLINK",
        "DELETELINK",
        "DELETECHAIN"
      ],
      "vertexType": "MolecularFragment"
    },
    {
      "lstAPs": [
        {
          "id": 18635243,
          "atomPositionNumber": 0,
          "atomPositionNumberInMol": -1,
          "apClass": {
            "rule": "ATplus",
            "subClass": 0,
            "bndTyp": "ANY"
          },
          "dirVec": {
            "x": 1.2949089956167246,
            "y": -2.42225253179424,
            "z": -2.300535997647931
          }
        }
      ],
      "lstSymAPs": [],
      "mol": {
        "atoms": [
          {
            "elSymbol": "ATP",
            "p3d": {
              "x": 1.3009002999609833,
              "y": -2.441929569176779,
              "z": -2.2963421364079015
            }
          }
        ],
        "bonds": []
      },
      "vertexId": 11130724,
      "buildingBlockId": 78,
      "buildingBlockType": "FRAGMENT",
      "isRCV": true,
      "properties": {
        "ATTACHMENT_POINTS": "1#ATplus:0:ANY:1.2949%-2.4223%-2.3005 ",
        "OLDVERTEXID": 159
      },
      "uniquefyingPropertyKeys": [],
      "allowedMutationTypes": [
        "DELETE",
        "EXTEND",
        "CHANGEBRANCH",
        "CHANGELINK",
        "ADDLINK",
        "DELETELINK",
        "DELETECHAIN"
      ],
      "vertexType": "MolecularFragment"
    },
    {
      "lstAPs": [
        {
          "id": 18635244,
          "atomPositionNumber": 0,
          "atomPositionNumberInMol": -1,
          "apClass": {
            "rule": "ATplus",
            "subClass": 0,
            "bndTyp": "ANY"
          },
          "dirVec": {
            "x": 0.6027963924718436,
            "y": 2.713740576254344,
            "z": -1.9339348129178737
          }
        }
      ],
      "lstSymAPs": [],
      "mol": {
        "atoms": [
          {
            "elSymbol": "ATP",
            "p3d": {
              "x": 0.6027018116100019,
              "y": 2.7334339026976644,
              "z": -1.9266661164695846
            }
          }
        ],
        "bonds": []
      },
      "vertexId": 11130725,
      "buildingBlockId": 78,
      "buildingBlockType": "FRAGMENT",
      "isRCV": true,
      "properties": {
        "ATTACHMENT_POINTS": "1#ATplus:0:ANY:0.6028%2.7137%-1.9339 ",
        "OLDVERTEXID": 160
      },
      "uniquefyingPropertyKeys": [],
      "allowedMutationTypes": [
        "DELETE",
        "EXTEND",
        "CHANGEBRANCH",
        "CHANGELINK",
        "ADDLINK",
        "DELETELINK",
        "DELETECHAIN"
      ],
      "vertexType": "MolecularFragment"
    },
    {
      "lstAPs": [
        {
          "id": 18635245,
          "atomPositionNumber": 1,
          "atomPositionNumberInMol": -1,
          "apClass": {
            "rule": "SubRS",
            "subClass": 1,
            "bndTyp": "SINGLE"
          },
          "dirVec": {
            "x": 0.2985,
            "y": 0.384,
            "z": -0.6258
          }
        }
      ],
      "lstSymAPs": [],
      "mol": {
        "atoms": [
          {
            "elSymbol": "C",
            "p3d": {
              "x": -1.0244,
              "y": -0.2225,
              "z": 1.3991
            }
          },
          {
            "elSymbol": "C",
            "p3d": {
              "x": 0.3973,
              "y": -0.042,
              "z": 0.8195
            }
          },
          {
            "elSymbol": "H",
            "p3d": {
              "x": -1.5635,
              "y": -0.9908,
              "z": 0.8263
            }
          },
          {
            "elSymbol": "H",
            "p3d": {
              "x": -0.941,
              "y": -0.535,
              "z": 2.446
            }
          },
          {
            "elSymbol": "H",
            "p3d": {
              "x": -1.5586,
              "y": 0.7335,
              "z": 1.3382
            }
          },
          {
            "elSymbol": "H",
            "p3d": {
              "x": 0.9335,
              "y": 0.7221,
              "z": 1.4011
            }
          },
          {
            "elSymbol": "H",
            "p3d": {
              "x": 0.927,
              "y": -1.0102,
              "z": 0.9001
            }
          }
        ],
        "bonds": [
          {
            "atomIds": [
              0,
              1
            ],
            "bo": "SINGLE"
          },
          {
            "atomIds": [
              0,
              2
            ],
            "bo": "SINGLE"
          },
          {
            "atomIds": [
              0,
              3
            ],
            "bo": "SINGLE"
          },
          {
            "atomIds": [
              0,
              4
            ],
            "bo": "SINGLE"
          },
          {
            "atomIds": [
              1,
              5
            ],
            "bo": "SINGLE"
          },
          {
            "atomIds": [
              1,
              6
            ],
            "bo": "SINGLE"
          }
        ]
      },
      "vertexId": 11130726,
      "buildingBlockId": 24,
      "buildingBlockType": "FRAGMENT",
      "isRCV": false,
      "properties": {
        "ATTACHMENT_POINTS": "2#SubRS:1:SINGLE:0.2985%0.3840%-0.6258 ",
        "OLDVERTEXID": 10283
      },
      "uniquefyingPropertyKeys": [],
      "allowedMutationTypes": [
        "DELETE",
        "EXTEND",
        "CHANGEBRANCH",
        "CHANGELINK",
        "ADDLINK",
        "DELETELINK",
        "DELETECHAIN"
      ],
      "vertexType": "MolecularFragment"
    },
    {
      "lstAPs": [
        {
          "id": 18635246,
          "atomPositionNumber": 0,
          "atomPositionNumberInMol": -1,
          "apClass": {
            "rule": "Xlig",
            "subClass": 1,
            "bndTyp": "SINGLE"
          },
          "dirVec": {
            "x": -0.102,
            "y": 0.0185,
            "z": -1.0265
          }
        },
        {
          "id": 18635247,
          "atomPositionNumber": 0,
          "atomPositionNumberInMol": -1,
          "apClass": {
            "rule": "bridge",
            "subClass": 1,
            "bndTyp": "SINGLE"
          },
          "dirVec": {
            "x": -0.626,
            "y": 2.4866,
            "z": 0.7805
          }
        }
      ],
      "lstSymAPs": [],
      "mol": {
        "atoms": [
          {
            "elSymbol": "S",
            "p3d": {
              "x": -0.3267,
              "y": 2.3403,
              "z": -1.0022
            }
          }
        ],
        "bonds": []
      },
      "vertexId": 11130727,
      "buildingBlockId": 73,
      "buildingBlockType": "FRAGMENT",
      "isRCV": false,
      "properties": {
        "ATTACHMENT_POINTS": "1#Xlig:1:SINGLE:-0.1020%0.0185%-1.0265,bridge:1:SINGLE:-0.6260%2.4866%0.7805 ",
        "OLDVERTEXID": 10275
      },
      "uniquefyingPropertyKeys": [],
      "allowedMutationTypes": [
        "DELETE",
        "EXTEND",
        "CHANGEBRANCH",
        "CHANGELINK",
        "ADDLINK",
        "DELETELINK",
        "DELETECHAIN"
      ],
      "vertexType": "MolecularFragment"
    },
    {
      "lstAPs": [
        {
          "id": 18635248,
          "atomPositionNumber": 0,
          "atomPositionNumberInMol": -1,
          "apClass": {
            "rule": "Xlig",
            "subClass": 1,
            "bndTyp": "SINGLE"
          },
          "dirVec": {
            "x": -0.102,
            "y": 0.0185,
            "z": -1.0265
          }
        },
        {
          "id": 18635249,
          "atomPositionNumber": 0,
          "atomPositionNumberInMol": -1,
          "apClass": {
            "rule": "bridge",
            "subClass": 1,
            "bndTyp": "SINGLE"
          },
          "dirVec": {
            "x": -0.626,
            "y": 2.4866,
            "z": 0.7805
          }
        }
      ],
      "lstSymAPs": [],
      "mol": {
        "atoms": [
          {
            "elSymbol": "S",
            "p3d": {
              "x": -0.3267,
              "y": 2.3403,
              "z": -1.0022
            }
          }
        ],
        "bonds": []
      },
      "vertexId": 11130728,
      "buildingBlockId": 73,
      "buildingBlockType": "FRAGMENT",
      "isRCV": false,
      "properties": {
        "ATTACHMENT_POINTS": "1#Xlig:1:SINGLE:-0.1020%0.0185%-1.0265,bridge:1:SINGLE:-0.6260%2.4866%0.7805 ",
        "OLDVERTEXID": 10386
      },
      "uniquefyingPropertyKeys": [],
      "allowedMutationTypes": [
        "DELETE",
        "EXTEND",
        "CHANGEBRANCH",
        "CHANGELINK",
        "ADDLINK",
        "DELETELINK",
        "DELETECHAIN"
      ],
      "vertexType": "MolecularFragment"
    },
    {
      "lstAPs": [
        {
          "id": 18635250,
          "atomPositionNumber": 0,
          "atomPositionNumberInMol": -1,
          "apClass": {
            "rule": "bridge",
            "subClass": 0,
            "bndTyp": "SINGLE"
          },
          "dirVec": {
            "x": 2.2309,
            "y": 1.5817,
            "z": 0.6565999999999999
          }
        },
        {
          "id": 18635251,
          "atomPositionNumber": 4,
          "atomPositionNumberInMol": -1,
          "apClass": {
            "rule": "bridge",
            "subClass": 0,
            "bndTyp": "SINGLE"
          },
          "dirVec": {
            "x": 1.1795,
            "y": -0.8206,
            "z": 2.1815
          }
        }
      ],
      "lstSymAPs": [
        {
          "symIds": [
            0,
            1
          ]
        }
      ],
      "mol": {
        "atoms": [
          {
            "elSymbol": "C",
            "p3d": {
              "x": 1.4767,
              "y": 0.4111,
              "z": -0.0358
            }
          },
          {
            "elSymbol": "C",
            "p3d": {
              "x": 0.6064,
              "y": 0.7242,
              "z": -1.2721
            }
          },
          {
            "elSymbol": "C",
            "p3d": {
              "x": -0.3951,
              "y": -0.4594,
              "z": -1.3469
            }
          },
          {
            "elSymbol": "C",
            "p3d": {
              "x": -0.3076,
              "y": -1.2087,
              "z": 0.0097
            }
          },
          {
            "elSymbol": "C",
            "p3d": {
              "x": 0.4613,
              "y": -0.2385,
              "z": 0.9321
            }
          },
          {
            "elSymbol": "H",
            "p3d": {
              "x": 2.2245,
              "y": -0.3328,
              "z": -0.3416
            }
          },
          {
            "elSymbol": "H",
            "p3d": {
              "x": 0.0672,
              "y": 1.6663,
              "z": -1.1316
            }
          },
          {
            "elSymbol": "H",
            "p3d": {
              "x": 1.2126,
              "y": 0.798,
              "z": -2.1799
            }
          },
          {
            "elSymbol": "H",
            "p3d": {
              "x": -0.1332,
              "y": -1.1322,
              "z": -2.1707
            }
          },
          {
            "elSymbol": "H",
            "p3d": {
              "x": -1.4103,
              "y": -0.0853,
              "z": -1.5178
            }
          },
          {
            "elSymbol": "H",
            "p3d": {
              "x": 0.248,
              "y": -2.143,
              "z": -0.114
            }
          },
          {
            "elSymbol": "H",
            "p3d": {
              "x": -1.2998,
              "y": -1.4376,
              "z": 0.4073
            }
          },
          {
            "elSymbol": "H",
            "p3d": {
              "x": -0.2539,
              "y": 0.5182,
              "z": 1.28
            }
          }
        ],
        "bonds": [
          {
            "atomIds": [
              0,
              1
            ],
            "bo": "SINGLE"
          },
          {
            "atomIds": [
              1,
              2
            ],
            "bo": "SINGLE"
          },
          {
            "atomIds": [
              2,
              3
            ],
            "bo": "SINGLE"
          },
          {
            "atomIds": [
              3,
              4
            ],
            "bo": "SINGLE"
          },
          {
            "atomIds": [
              0,
              4
            ],
            "bo": "SINGLE"
          },
          {
            "atomIds": [
              0,
              5
            ],
            "bo": "SINGLE"
          },
          {
            "atomIds": [
              1,
              6
            ],
            "bo": "SINGLE"
          },
          {
            "atomIds": [
              1,
              7
            ],
            "bo": "SINGLE"
          },
          {
            "atomIds": [
              2,
              8
            ],
            "bo": "SINGLE"
          },
          {
            "atomIds": [
              2,
              9
            ],
            "bo": "SINGLE"
          },
          {
            "atomIds": [
              3,
              10
            ],
            "bo": "SINGLE"
          },
          {
            "atomIds": [
              3,
              11
            ],
            "bo": "SINGLE"
          },
          {
            "atomIds": [
              4,
              12
            ],
            "bo": "SINGLE"
          }
        ]
      },
      "vertexId": 11130729,
      "buildingBlockId": 69,
      "buildingBlockType": "FRAGMENT",
      "isRCV": false,
      "properties": {
        "ATTACHMENT_POINTS": "1#bridge:0:SINGLE:2.2309%1.5817%0.6566 5#bridge:0:SINGLE:1.1795%-0.8206%2.1815 ",
        "OLDVERTEXID": 213737
      },
      "uniquefyingPropertyKeys": [],
      "allowedMutationTypes": [
        "DELETE",
        "EXTEND",
        "CHANGEBRANCH",
        "CHANGELINK",
        "ADDLINK",
        "DELETELINK",
        "DELETECHAIN"
      ],
      "vertexType": "MolecularFragment"
    },
    {
      "lstAPs": [
        {
          "id": 18635252,
          "atomPositionNumber": 0,
          "atomPositionNumberInMol": -1,
          "apClass": {
            "rule": "bridge",
            "subClass": 0,
            "bndTyp": "SINGLE"
          },
          "dirVec": {
            "x": 2.2309,
            "y": 1.5817,
            "z": 0.6565999999999999
          }
        },
        {
          "id": 18635253,
          "atomPositionNumber": 4,
          "atomPositionNumberInMol": -1,
          "apClass": {
            "rule": "bridge",
            "subClass": 0,
            "bndTyp": "SINGLE"
          },
          "dirVec": {
            "x": 1.1795,
            "y": -0.8206,
            "z": 2.1815
          }
        }
      ],
      "lstSymAPs": [
        {
          "symIds": [
            0,
            1
          ]
        }
      ],
      "mol": {
        "atoms": [
          {
            "elSymbol": "C",
            "p3d": {
              "x": 1.4767,
              "y": 0.4111,
              "z": -0.0358
            }
          },
          {
            "elSymbol": "C",
            "p3d": {
              "x": 0.6064,
              "y": 0.7242,
              "z": -1.2721
            }
          },
          {
            "elSymbol": "C",
            "p3d": {
              "x": -0.3951,
              "y": -0.4594,
              "z": -1.3469
            }
          },
          {
            "elSymbol": "C",
            "p3d": {
              "x": -0.3076,
              "y": -1.2087,
              "z": 0.0097
            }
          },
          {
            "elSymbol": "C",
            "p3d": {
              "x": 0.4613,
              "y": -0.2385,
              "z": 0.9321
            }
          },
          {
            "elSymbol": "H",
            "p3d": {
              "x": 2.2245,
              "y": -0.3328,
              "z": -0.3416
            }
          },
          {
            "elSymbol": "H",
            "p3d": {
              "x": 0.0672,
              "y": 1.6663,
              "z": -1.1316
            }
          },
          {
            "elSymbol": "H",
            "p3d": {
              "x": 1.2126,
              "y": 0.798,
              "z": -2.1799
            }
          },
          {
            "elSymbol": "H",
            "p3d": {
              "x": -0.1332,
              "y": -1.1322,
              "z": -2.1707
            }
          },
          {
            "elSymbol": "H",
            "p3d": {
              "x": -1.4103,
              "y": -0.0853,
              "z": -1.5178
            }
          },
          {
            "elSymbol": "H",
            "p3d": {
              "x": 0.248,
              "y": -2.143,
              "z": -0.114
            }
          },
          {
            "elSymbol": "H",
            "p3d": {
              "x": -1.2998,
              "y": -1.4376,
              "z": 0.4073
            }
          },
          {
            "elSymbol": "H",
            "p3d": {
              "x": -0.2539,
              "y": 0.5182,
              "z": 1.28
            }
          }
        ],
        "bonds": [
          {
            "atomIds": [
              0,
              1
            ],
            "bo": "SINGLE"
          },
          {
            "atomIds": [
              1,
              2
            ],
            "bo": "SINGLE"
          },
          {
            "atomIds": [
              2,
              3
            ],
            "bo": "SINGLE"
          },
          {
            "atomIds": [
              3,
              4
            ],
            "bo": "SINGLE"
          },
          {
            "atomIds": [
              0,
              4
            ],
            "bo": "SINGLE"
          },
          {
            "atomIds": [
              0,
              5
            ],
            "bo": "SINGLE"
          },
          {
            "atomIds": [
              1,
              6
            ],
            "bo": "SINGLE"
          },
          {
            "atomIds": [
              1,
              7
            ],
            "bo": "SINGLE"
          },
          {
            "atomIds": [
              2,
              8
            ],
            "bo": "SINGLE"
          },
          {
            "atomIds": [
              2,
              9
            ],
            "bo": "SINGLE"
          },
          {
            "atomIds": [
              3,
              10
            ],
            "bo": "SINGLE"
          },
          {
            "atomIds": [
              3,
              11
            ],
            "bo": "SINGLE"
          },
          {
            "atomIds": [
              4,
              12
            ],
            "bo": "SINGLE"
          }
        ]
      },
      "vertexId": 11130730,
      "buildingBlockId": 69,
      "buildingBlockType": "FRAGMENT",
      "isRCV": false,
      "properties": {
        "ATTACHMENT_POINTS": "1#bridge:0:SINGLE:2.2309%1.5817%0.6566 5#bridge:0:SINGLE:1.1795%-0.8206%2.1815 ",
        "OLDVERTEXID": 213549
      },
      "uniquefyingPropertyKeys": [],
      "allowedMutationTypes": [
        "DELETE",
        "EXTEND",
        "CHANGEBRANCH",
        "CHANGELINK",
        "ADDLINK",
        "DELETELINK",
        "DELETECHAIN"
      ],
      "vertexType": "MolecularFragment"
    },
    {
      "lstAPs": [
        {
          "id": 18635254,
          "atomPositionNumber": 0,
          "atomPositionNumberInMol": -1,
          "apClass": {
            "rule": "ATminus",
            "subClass": 0,
            "bndTyp": "ANY"
          },
          "dirVec": {
            "x": 0.0109,
            "y": -0.0071,
            "z": 0.0026
          }
        }
      ],
      "lstSymAPs": [],
      "mol": {
        "atoms": [
          {
            "elSymbol": "ATM",
            "p3d": {
              "x": -0.0096,
              "y": 0.0045,
              "z": -0.0011
            }
          }
        ],
        "bonds": []
      },
      "vertexId": 11130731,
      "buildingBlockId": 79,
      "buildingBlockType": "FRAGMENT",
      "isRCV": true,
      "properties": {
        "ATTACHMENT_POINTS": "1#ATminus:0:ANY:0.0109%-0.0071%0.0026 ",
        "OLDVERTEXID": 11130639
      },
      "uniquefyingPropertyKeys": [],
      "allowedMutationTypes": [
        "DELETE",
        "EXTEND",
        "CHANGEBRANCH",
        "CHANGELINK",
        "ADDLINK",
        "DELETELINK",
        "DELETECHAIN"
      ],
      "vertexType": "MolecularFragment"
    },
    {
      "lstAPs": [
        {
          "id": 18635255,
          "atomPositionNumber": 0,
          "atomPositionNumberInMol": -1,
          "apClass": {
            "rule": "ATminus",
            "subClass": 0,
            "bndTyp": "ANY"
          },
          "dirVec": {
            "x": 0.0109,
            "y": -0.0071,
            "z": 0.0026
          }
        }
      ],
      "lstSymAPs": [],
      "mol": {
        "atoms": [
          {
            "elSymbol": "ATM",
            "p3d": {
              "x": -0.0096,
              "y": 0.0045,
              "z": -0.0011
            }
          }
        ],
        "bonds": []
      },
      "vertexId": 11130732,
      "buildingBlockId": 79,
      "buildingBlockType": "FRAGMENT",
      "isRCV": true,
      "properties": {
        "ATTACHMENT_POINTS": "1#ATminus:0:ANY:0.0109%-0.0071%0.0026 ",
        "OLDVERTEXID": 11130622
      },
      "uniquefyingPropertyKeys": [],
      "allowedMutationTypes": [
        "DELETE",
        "EXTEND",
        "CHANGEBRANCH",
        "CHANGELINK",
        "ADDLINK",
        "DELETELINK",
        "DELETECHAIN"
      ],
      "vertexType": "MolecularFragment"
    }
  ],
  "gEdges": [
    {
      "srcAPID": 18635238,
      "trgAPID": 18635240,
      "bondType": "SINGLE"
    },
    {
      "srcAPID": 18635241,
      "trgAPID": 18635243,
      "bondType": "SINGLE"
    },
    {
      "srcAPID": 18635242,
      "trgAPID": 18635244,
      "bondType": "SINGLE"
    },
    {
      "srcAPID": 18635239,
      "trgAPID": 18635245,
      "bondType": "SINGLE"
    },
    {
      "srcAPID": 18635236,
      "trgAPID": 18635246,
      "bondType": "SINGLE"
    },
    {
      "srcAPID": 18635237,
      "trgAPID": 18635248,
      "bondType": "SINGLE"
    },
    {
      "srcAPID": 18635249,
      "trgAPID": 18635250,
      "bondType": "SINGLE"
    },
    {
      "srcAPID": 18635247,
      "trgAPID": 18635252,
      "bondType": "SINGLE"
    },
    {
      "srcAPID": 18635253,
      "trgAPID": 18635254,
      "bondType": "SINGLE"
    },
    {
      "srcAPID": 18635251,
      "trgAPID": 18635255,
      "bondType": "SINGLE"
    }
  ],
  "gRings": [
    {
      "vertices": [
        11130724,
        11130723,
        11130722,
        11130727,
        11130730,
        11130731
      ],
      "bndTyp": "SINGLE"
    },
    {
      "vertices": [
        11130725,
        11130723,
        11130722,
        11130728,
        11130729,
        11130732
      ],
      "bndTyp": "SINGLE"
    }
  ],
  "symVertices": [
    {
      "symIds": [
        11130724,
        11130725
      ]
    },
    {
      "symIds": [
        11130727,
        11130728
      ]
    },
    {
      "symIds": [
        11130729,
        11130730
      ]
    },
    {
      "symIds": [
        11130731,
        11130732
      ]
    }
  ]
}

> <SMILES>
[Pt]12(C#O)[P]3(N(C([H])=C(N3C4(C(C(C(C4([H])S1)([H])[H])([H])[H])([H])[H])[H])[H])C5(C(C(C(C5([H])S2)([H])[H])([H])[H])([H])[H])[H])C(C([H])([H])[H])([H])[H]

$$$$
