M30094108
  CDK     05082207263D

 50 50  0  0  0  0  0  0  0  0999 V2000
    0.6222   -0.2122    0.6215 Pt  0  0  0  0  0  0  0  0  0  0  0  0
    2.4928   -0.7767    1.0904 C   0  0  0  0  0  0  0  0  0  0  0  0
    3.5664   -1.0511    1.3611 O   0  0  0  0  0  0  0  0  0  0  0  0
   -1.4759    0.1841   -0.0697 P   0  0  0  0  0  0  0  0  0  0  0  0
   -2.1992    1.7280    0.3262 N   0  0  0  0  0  0  0  0  0  0  0  0
   -3.4604    1.4940    0.9332 C   0  0  0  0  0  0  0  0  0  0  0  0
   -4.0759    2.3424    1.2051 H   0  0  0  0  0  0  0  0  0  0  0  0
   -3.7659    0.1784    1.1292 C   0  0  0  0  0  0  0  0  0  0  0  0
   -4.6633   -0.2162    1.5818 H   0  0  0  0  0  0  0  0  0  0  0  0
   -2.7617   -0.7343    0.6805 N   0  0  0  0  0  0  0  0  0  0  0  0
   -0.2725    0.6979   -2.4657 C   0  0  0  0  0  0  0  0  0  0  0  0
   -1.4699   -0.0881   -1.9503 C   0  0  0  0  0  0  0  0  0  0  0  0
   -2.7872    0.3394   -2.5748 C   0  0  0  0  0  0  0  0  0  0  0  0
   -3.6472   -0.2193   -2.1831 H   0  0  0  0  0  0  0  0  0  0  0  0
   -2.7651    0.1641   -3.6606 H   0  0  0  0  0  0  0  0  0  0  0  0
   -2.9976    1.4104   -2.4432 H   0  0  0  0  0  0  0  0  0  0  0  0
   -0.1337    0.5244   -3.5433 H   0  0  0  0  0  0  0  0  0  0  0  0
   -0.3756    1.7884   -2.3500 H   0  0  0  0  0  0  0  0  0  0  0  0
    0.6889    0.4076   -1.9972 H   0  0  0  0  0  0  0  0  0  0  0  0
   -1.3028   -1.1852   -2.1293 H   0  0  0  0  0  0  0  0  0  0  0  0
   -1.7852    2.6604    0.1670 H   0  0  0  0  0  0  0  0  0  0  0  0
   -2.8148   -1.7348    0.8056 H   0  0  0  0  0  0  0  0  0  0  0  0
    0.6838   -3.2430   -0.2042 S   0  0  0  0  0  0  0  0  0  0  0  0
   -0.3072   -1.9814    0.0751 O   0  0  0  0  0  0  0  0  0  0  0  0
    1.9464   -2.7794    0.4091 O   0  0  0  0  0  0  0  0  0  0  0  0
    0.6552   -3.5764   -1.6007 O   0  0  0  0  0  0  0  0  0  0  0  0
   -0.2253   -7.0150    1.0782 C   0  0  0  0  0  0  0  0  0  0  0  0
    0.4456   -5.8925    0.2915 C   0  0  0  0  0  0  0  0  0  0  0  0
   -0.0196   -4.5119    0.7665 C   0  0  0  0  0  0  0  0  0  0  0  0
    0.1257   -7.9970    0.7356 H   0  0  0  0  0  0  0  0  0  0  0  0
   -1.3152   -7.0023    0.9612 H   0  0  0  0  0  0  0  0  0  0  0  0
    1.5485   -5.9801    0.3939 H   0  0  0  0  0  0  0  0  0  0  0  0
    0.2269   -6.0158   -0.7932 H   0  0  0  0  0  0  0  0  0  0  0  0
   -1.1299   -4.4672    0.7514 H   0  0  0  0  0  0  0  0  0  0  0  0
    0.2324   -4.3854    1.8432 H   0  0  0  0  0  0  0  0  0  0  0  0
   -0.0078   -6.9493    2.1508 H   0  0  0  0  0  0  0  0  0  0  0  0
    1.4573    2.7653    0.1485 S   0  0  0  0  0  0  0  0  0  0  0  0
    1.3524    1.5898    1.2640 O   0  0  0  0  0  0  0  0  0  0  0  0
    0.0971    3.2219   -0.1286 O   0  0  0  0  0  0  0  0  0  0  0  0
    2.1952    2.1934   -0.9605 O   0  0  0  0  0  0  0  0  0  0  0  0
    3.1325    6.3925    0.9906 C   0  0  0  0  0  0  0  0  0  0  0  0
    2.3751    5.3049    0.2332 C   0  0  0  0  0  0  0  0  0  0  0  0
    2.3690    3.9812    1.0030 C   0  0  0  0  0  0  0  0  0  0  0  0
    3.1351    7.3341    0.4274 H   0  0  0  0  0  0  0  0  0  0  0  0
    4.1791    6.1153    1.1645 H   0  0  0  0  0  0  0  0  0  0  0  0
    1.3313    5.6419    0.0474 H   0  0  0  0  0  0  0  0  0  0  0  0
    2.8392    5.1627   -0.7668 H   0  0  0  0  0  0  0  0  0  0  0  0
    3.4148    3.6501    1.1890 H   0  0  0  0  0  0  0  0  0  0  0  0
    1.9652    4.1426    2.0278 H   0  0  0  0  0  0  0  0  0  0  0  0
    2.6810    6.5996    1.9680 H   0  0  0  0  0  0  0  0  0  0  0  0
  2  3  3  0  0  0  0
  1  2  1  0  0  0  0
  5  4  1  0  0  0  0
  6  5  1  0  0  0  0
  7  6  1  0  0  0  0
  8  6  2  0  0  0  0
  8 10  1  0  0  0  0
  9  8  1  0  0  0  0
 10  4  1  0  0  0  0
  1  4  1  0  0  0  0
 11 12  1  0  0  0  0
 12 13  1  0  0  0  0
 13 14  1  0  0  0  0
 13 15  1  0  0  0  0
 13 16  1  0  0  0  0
 11 17  1  0  0  0  0
 11 18  1  0  0  0  0
 11 19  1  0  0  0  0
 12 20  1  0  0  0  0
  4 12  1  0  0  0  0
  5 21  1  0  0  0  0
 10 22  1  0  0  0  0
 23 24  1  0  0  0  0
 25 23  2  0  0  0  0
 26 23  2  0  0  0  0
  1 24  1  0  0  0  0
 27 28  1  0  0  0  0
 28 29  1  0  0  0  0
 27 30  1  0  0  0  0
 27 31  1  0  0  0  0
 28 32  1  0  0  0  0
 28 33  1  0  0  0  0
 29 34  1  0  0  0  0
 29 35  1  0  0  0  0
 23 29  1  0  0  0  0
 27 36  1  0  0  0  0
 37 38  1  0  0  0  0
 39 37  2  0  0  0  0
 40 37  2  0  0  0  0
  1 38  1  0  0  0  0
 41 42  1  0  0  0  0
 42 43  1  0  0  0  0
 41 44  1  0  0  0  0
 41 45  1  0  0  0  0
 42 46  1  0  0  0  0
 42 47  1  0  0  0  0
 43 48  1  0  0  0  0
 43 49  1  0  0  0  0
 37 43  1  0  0  0  0
 41 50  1  0  0  0  0
M  END
> <PM6_ENERGY>
-1264.315

> <UID>
CDRMQZUWJBPSAB-XIWHNALKNA-L

> <FITNESS>
1.1407

> <GCODE>
206908

> <GraphENC>
206908 157_1_0,158_1_1,159_79_1,160_79_1,10284_26_1,10278_77_1,10747_77_1,222261_65_1,222216_65_1,11465540_80_1,11465538_80_1, 157_2_158_1_SINGLE_scaff:0_MBisAminoPhosphine:1,158_2_159_0_SINGLE_LCycloBisAminoPhospholeSubN:0_ATplus:0,158_3_160_0_SINGLE_LCycloBisAminoPhospholeSubN:0_ATplus:0,158_0_10284_0_SINGLE_LBisAminoPhosphineSubR:0_SubRM:1,157_0_10278_0_SINGLE_Xlig:0_Xlig:1,157_1_10747_0_SINGLE_Xlig:0_Xlig:1,10747_1_222261_1_SINGLE_bridge:1_bridge:0,10278_1_222216_1_SINGLE_bridge:1_bridge:0,222216_0_11465540_0_SINGLE_bridge:0_ATminus:0,222261_0_11465538_0_SINGLE_bridge:0_ATminus:0, SymmetricSet [symIds=[159, 160]] SymmetricSet [symIds=[10278, 10747]] SymmetricSet [symIds=[222261, 222216]] SymmetricSet [symIds=[11465540, 11465538]] 

> <GraphJson>
{
  "graphId": 206908,
  "gVertices": [
    {
      "lstAPs": [
        {
          "id": 19185464,
          "atomPositionNumber": 0,
          "atomPositionNumberInMol": 0,
          "apClass": {
            "rule": "Xlig",
            "subClass": 0,
            "bndTyp": "SINGLE"
          },
          "dirVec": {
            "x": -2.3339,
            "y": -0.0087,
            "z": 0.8172
          }
        },
        {
          "id": 19185465,
          "atomPositionNumber": 0,
          "atomPositionNumberInMol": 0,
          "apClass": {
            "rule": "Xlig",
            "subClass": 0,
            "bndTyp": "SINGLE"
          },
          "dirVec": {
            "x": 2.336,
            "y": -5.0E-4,
            "z": 0.829
          }
        },
        {
          "id": 19185466,
          "atomPositionNumber": 0,
          "atomPositionNumberInMol": 0,
          "apClass": {
            "rule": "scaff",
            "subClass": 0,
            "bndTyp": "SINGLE"
          },
          "dirVec": {
            "x": -0.0095,
            "y": 0.0046,
            "z": -1.7113
          }
        }
      ],
      "lstSymAPs": [
        {
          "symIds": [
            0,
            1
          ]
        }
      ],
      "mol": {
        "atoms": [
          {
            "elSymbol": "Pt",
            "p3d": {
              "x": -0.0098,
              "y": 0.0049,
              "z": 0.6289
            }
          },
          {
            "elSymbol": "C",
            "p3d": {
              "x": -6.0E-4,
              "y": 0.0016,
              "z": 2.5609
            }
          },
          {
            "elSymbol": "O",
            "p3d": {
              "x": 0.0025,
              "y": -0.0041,
              "z": 3.6974
            }
          },
          {
            "elSymbol": "Du",
            "p3d": {
              "x": -0.007,
              "y": 1.0013,
              "z": 0.6372
            }
          },
          {
            "elSymbol": "Du",
            "p3d": {
              "x": -0.0014,
              "y": 0.9902,
              "z": 2.5698
            }
          }
        ],
        "bonds": [
          {
            "atomIds": [
              1,
              2
            ],
            "bo": "TRIPLE"
          },
          {
            "atomIds": [
              0,
              1
            ],
            "bo": "SINGLE"
          },
          {
            "atomIds": [
              3,
              0
            ],
            "bo": "SINGLE"
          },
          {
            "atomIds": [
              4,
              1
            ],
            "bo": "SINGLE"
          }
        ]
      },
      "vertexId": 157,
      "buildingBlockId": 0,
      "buildingBlockType": "SCAFFOLD",
      "isRCV": false,
      "properties": {
        "ATTACHMENT_POINTS": "1#Xlig:0:SINGLE:-2.3339%-0.0087%0.8172,Xlig:0:SINGLE:2.3360%-0.0005%0.8290,scaff:0:SINGLE:-0.0095%0.0046%-1.7113 "
      },
      "uniquefyingPropertyKeys": [],
      "allowedMutationTypes": [
        "DELETE",
        "EXTEND",
        "CHANGEBRANCH",
        "CHANGELINK",
        "ADDLINK",
        "DELETELINK",
        "DELETECHAIN"
      ],
      "vertexType": "MolecularFragment"
    },
    {
      "lstAPs": [
        {
          "id": 19185467,
          "atomPositionNumber": 0,
          "atomPositionNumberInMol": 5,
          "apClass": {
            "rule": "LBisAminoPhosphineSubR",
            "subClass": 0,
            "bndTyp": "SINGLE"
          },
          "dirVec": {
            "x": -1.792186992952222,
            "y": 0.022200467215305136,
            "z": -2.140294607879978
          }
        },
        {
          "id": 19185468,
          "atomPositionNumber": 0,
          "atomPositionNumberInMol": 5,
          "apClass": {
            "rule": "MBisAminoPhosphine",
            "subClass": 1,
            "bndTyp": "SINGLE"
          },
          "dirVec": {
            "x": -0.009790620829534021,
            "y": 0.00489062082953414,
            "z": 0.5557362175858562
          }
        },
        {
          "id": 19185469,
          "atomPositionNumber": 1,
          "atomPositionNumberInMol": 6,
          "apClass": {
            "rule": "LCycloBisAminoPhospholeSubN",
            "subClass": 0,
            "bndTyp": "SINGLE"
          },
          "dirVec": {
            "x": 1.2949089956167246,
            "y": -2.42225253179424,
            "z": -2.300535997647931
          }
        },
        {
          "id": 19185470,
          "atomPositionNumber": 6,
          "atomPositionNumberInMol": 11,
          "apClass": {
            "rule": "LCycloBisAminoPhospholeSubN",
            "subClass": 0,
            "bndTyp": "SINGLE"
          },
          "dirVec": {
            "x": 0.6027963924718436,
            "y": 2.713740576254344,
            "z": -1.9339348129178737
          }
        }
      ],
      "lstSymAPs": [
        {
          "symIds": [
            2,
            3
          ]
        }
      ],
      "mol": {
        "atoms": [
          {
            "elSymbol": "P",
            "p3d": {
              "x": -0.009509379170465976,
              "y": 0.0046093791704658596,
              "z": -1.6381362175858563
            }
          },
          {
            "elSymbol": "N",
            "p3d": {
              "x": 0.8794215696247446,
              "y": -1.0576812892978638,
              "z": -2.591373603528704
            }
          },
          {
            "elSymbol": "C",
            "p3d": {
              "x": 1.4784130515805665,
              "y": -0.3502497342485035,
              "z": -3.6667175296587655
            }
          },
          {
            "elSymbol": "H",
            "p3d": {
              "x": 2.002763870919993,
              "y": -0.8376805256483705,
              "z": -4.485505293278479
            }
          },
          {
            "elSymbol": "C",
            "p3d": {
              "x": 1.3489654149504855,
              "y": 0.9625869625862175,
              "z": -3.5719563729806016
            }
          },
          {
            "elSymbol": "H",
            "p3d": {
              "x": 1.7691178283110074,
              "y": 1.6534842558611083,
              "z": -4.288163158547981
            }
          },
          {
            "elSymbol": "N",
            "p3d": {
              "x": 0.6093348110301025,
              "y": 1.3523318453165212,
              "z": -2.4364231475178193
            }
          }
        ],
        "bonds": [
          {
            "atomIds": [
              1,
              0
            ],
            "bo": "SINGLE"
          },
          {
            "atomIds": [
              2,
              1
            ],
            "bo": "SINGLE"
          },
          {
            "atomIds": [
              3,
              2
            ],
            "bo": "SINGLE"
          },
          {
            "atomIds": [
              4,
              2
            ],
            "bo": "DOUBLE"
          },
          {
            "atomIds": [
              4,
              6
            ],
            "bo": "SINGLE"
          },
          {
            "atomIds": [
              5,
              4
            ],
            "bo": "SINGLE"
          },
          {
            "atomIds": [
              6,
              0
            ],
            "bo": "SINGLE"
          }
        ]
      },
      "vertexId": 158,
      "buildingBlockId": 0,
      "buildingBlockType": "FRAGMENT",
      "isRCV": false,
      "properties": {
        "ATTACHMENT_POINTS": "1#LBisAminoPhosphineSubR:0:SINGLE:-1.7922%0.0222%-2.1403,MBisAminoPhosphine:1:SINGLE:-0.0098%0.0049%0.5557 2#LCycloBisAminoPhospholeSubN:0:SINGLE:1.2949%-2.4223%-2.3005 7#LCycloBisAminoPhospholeSubN:0:SINGLE:0.6028%2.7137%-1.9339 "
      },
      "uniquefyingPropertyKeys": [],
      "allowedMutationTypes": [
        "DELETE",
        "EXTEND",
        "CHANGEBRANCH",
        "CHANGELINK",
        "ADDLINK",
        "DELETELINK",
        "DELETECHAIN"
      ],
      "vertexType": "MolecularFragment"
    },
    {
      "lstAPs": [
        {
          "id": 19185471,
          "atomPositionNumber": 0,
          "atomPositionNumberInMol": 12,
          "apClass": {
            "rule": "ATplus",
            "subClass": 0,
            "bndTyp": "ANY"
          },
          "dirVec": {
            "x": 1.2949089956167246,
            "y": -2.42225253179424,
            "z": -2.300535997647931
          }
        }
      ],
      "lstSymAPs": [],
      "mol": {
        "atoms": [
          {
            "elSymbol": "ATP",
            "p3d": {
              "x": 1.3009002999609833,
              "y": -2.441929569176779,
              "z": -2.2963421364079015
            }
          }
        ],
        "bonds": []
      },
      "vertexId": 159,
      "buildingBlockId": 78,
      "buildingBlockType": "FRAGMENT",
      "isRCV": true,
      "properties": {
        "ATTACHMENT_POINTS": "1#ATplus:0:ANY:1.2949%-2.4223%-2.3005 "
      },
      "uniquefyingPropertyKeys": [],
      "allowedMutationTypes": [
        "DELETE",
        "EXTEND",
        "CHANGEBRANCH",
        "CHANGELINK",
        "ADDLINK",
        "DELETELINK",
        "DELETECHAIN"
      ],
      "vertexType": "MolecularFragment"
    },
    {
      "lstAPs": [
        {
          "id": 19185472,
          "atomPositionNumber": 0,
          "atomPositionNumberInMol": 13,
          "apClass": {
            "rule": "ATplus",
            "subClass": 0,
            "bndTyp": "ANY"
          },
          "dirVec": {
            "x": 0.6027963924718436,
            "y": 2.713740576254344,
            "z": -1.9339348129178737
          }
        }
      ],
      "lstSymAPs": [],
      "mol": {
        "atoms": [
          {
            "elSymbol": "ATP",
            "p3d": {
              "x": 0.6027018116100019,
              "y": 2.7334339026976644,
              "z": -1.9266661164695846
            }
          }
        ],
        "bonds": []
      },
      "vertexId": 160,
      "buildingBlockId": 78,
      "buildingBlockType": "FRAGMENT",
      "isRCV": true,
      "properties": {
        "ATTACHMENT_POINTS": "1#ATplus:0:ANY:0.6028%2.7137%-1.9339 "
      },
      "uniquefyingPropertyKeys": [],
      "allowedMutationTypes": [
        "DELETE",
        "EXTEND",
        "CHANGEBRANCH",
        "CHANGELINK",
        "ADDLINK",
        "DELETELINK",
        "DELETECHAIN"
      ],
      "vertexType": "MolecularFragment"
    },
    {
      "lstAPs": [
        {
          "id": 19185473,
          "atomPositionNumber": 1,
          "atomPositionNumberInMol": 15,
          "apClass": {
            "rule": "SubRM",
            "subClass": 1,
            "bndTyp": "SINGLE"
          },
          "dirVec": {
            "x": 0.2868,
            "y": 0.385,
            "z": -0.643
          }
        }
      ],
      "lstSymAPs": [],
      "mol": {
        "atoms": [
          {
            "elSymbol": "C",
            "p3d": {
              "x": 1.141,
              "y": 1.0262,
              "z": 1.6347
            }
          },
          {
            "elSymbol": "C",
            "p3d": {
              "x": 0.3967,
              "y": -0.0479,
              "z": 0.8227
            }
          },
          {
            "elSymbol": "C",
            "p3d": {
              "x": 1.1459,
              "y": -1.371,
              "z": 0.9201
            }
          },
          {
            "elSymbol": "H",
            "p3d": {
              "x": 2.1461,
              "y": -1.2583,
              "z": 0.4976
            }
          },
          {
            "elSymbol": "H",
            "p3d": {
              "x": 0.6013,
              "y": -2.1408,
              "z": 0.3461
            }
          },
          {
            "elSymbol": "H",
            "p3d": {
              "x": 1.2113,
              "y": -1.6946,
              "z": 1.9559
            }
          },
          {
            "elSymbol": "H",
            "p3d": {
              "x": 2.1541,
              "y": 1.1435,
              "z": 1.2119
            }
          },
          {
            "elSymbol": "H",
            "p3d": {
              "x": 0.6143,
              "y": 1.976,
              "z": 1.5626
            }
          },
          {
            "elSymbol": "H",
            "p3d": {
              "x": 1.2058,
              "y": 0.7088,
              "z": 2.6868
            }
          },
          {
            "elSymbol": "H",
            "p3d": {
              "x": -0.6215,
              "y": -0.1789,
              "z": 1.2377
            }
          }
        ],
        "bonds": [
          {
            "atomIds": [
              0,
              1
            ],
            "bo": "SINGLE"
          },
          {
            "atomIds": [
              1,
              2
            ],
            "bo": "SINGLE"
          },
          {
            "atomIds": [
              2,
              3
            ],
            "bo": "SINGLE"
          },
          {
            "atomIds": [
              2,
              4
            ],
            "bo": "SINGLE"
          },
          {
            "atomIds": [
              2,
              5
            ],
            "bo": "SINGLE"
          },
          {
            "atomIds": [
              0,
              6
            ],
            "bo": "SINGLE"
          },
          {
            "atomIds": [
              0,
              7
            ],
            "bo": "SINGLE"
          },
          {
            "atomIds": [
              0,
              8
            ],
            "bo": "SINGLE"
          },
          {
            "atomIds": [
              1,
              9
            ],
            "bo": "SINGLE"
          }
        ]
      },
      "vertexId": 10284,
      "buildingBlockId": 25,
      "buildingBlockType": "FRAGMENT",
      "isRCV": false,
      "properties": {
        "ATTACHMENT_POINTS": "2#SubRM:1:SINGLE:0.2868%0.3850%-0.6430 "
      },
      "uniquefyingPropertyKeys": [],
      "allowedMutationTypes": [
        "DELETE",
        "EXTEND",
        "CHANGEBRANCH",
        "CHANGELINK",
        "ADDLINK",
        "DELETELINK",
        "DELETECHAIN"
      ],
      "vertexType": "MolecularFragment"
    },
    {
      "lstAPs": [
        {
          "id": 19185474,
          "atomPositionNumber": 1,
          "atomPositionNumberInMol": 25,
          "apClass": {
            "rule": "Xlig",
            "subClass": 1,
            "bndTyp": "SINGLE"
          },
          "dirVec": {
            "x": 5.983,
            "y": 5.659,
            "z": 10.7602
          }
        },
        {
          "id": 19185475,
          "atomPositionNumber": 0,
          "atomPositionNumberInMol": 24,
          "apClass": {
            "rule": "bridge",
            "subClass": 1,
            "bndTyp": "SINGLE"
          },
          "dirVec": {
            "x": 3.1219,
            "y": 7.0322,
            "z": 12.57
          }
        }
      ],
      "lstSymAPs": [],
      "mol": {
        "atoms": [
          {
            "elSymbol": "S",
            "p3d": {
              "x": 3.289,
              "y": 7.1626,
              "z": 10.7898
            }
          },
          {
            "elSymbol": "O",
            "p3d": {
              "x": 4.7494,
              "y": 7.4238,
              "z": 10.5812
            }
          },
          {
            "elSymbol": "O",
            "p3d": {
              "x": 2.8666,
              "y": 5.9079,
              "z": 10.2063
            }
          },
          {
            "elSymbol": "O",
            "p3d": {
              "x": 2.5225,
              "y": 8.319,
              "z": 10.3914
            }
          }
        ],
        "bonds": [
          {
            "atomIds": [
              0,
              1
            ],
            "bo": "SINGLE"
          },
          {
            "atomIds": [
              2,
              0
            ],
            "bo": "DOUBLE"
          },
          {
            "atomIds": [
              3,
              0
            ],
            "bo": "DOUBLE"
          }
        ]
      },
      "vertexId": 10278,
      "buildingBlockId": 76,
      "buildingBlockType": "FRAGMENT",
      "isRCV": false,
      "properties": {
        "ATTACHMENT_POINTS": "1#bridge:1:SINGLE:3.1219%7.0322%12.5700 2#Xlig:1:SINGLE:5.9830%5.6590%10.7602 "
      },
      "uniquefyingPropertyKeys": [],
      "allowedMutationTypes": [
        "DELETE",
        "EXTEND",
        "CHANGEBRANCH",
        "CHANGELINK",
        "ADDLINK",
        "DELETELINK",
        "DELETECHAIN"
      ],
      "vertexType": "MolecularFragment"
    },
    {
      "lstAPs": [
        {
          "id": 19185476,
          "atomPositionNumber": 1,
          "atomPositionNumberInMol": 39,
          "apClass": {
            "rule": "Xlig",
            "subClass": 1,
            "bndTyp": "SINGLE"
          },
          "dirVec": {
            "x": 5.983,
            "y": 5.659,
            "z": 10.7602
          }
        },
        {
          "id": 19185477,
          "atomPositionNumber": 0,
          "atomPositionNumberInMol": 38,
          "apClass": {
            "rule": "bridge",
            "subClass": 1,
            "bndTyp": "SINGLE"
          },
          "dirVec": {
            "x": 3.1219,
            "y": 7.0322,
            "z": 12.57
          }
        }
      ],
      "lstSymAPs": [],
      "mol": {
        "atoms": [
          {
            "elSymbol": "S",
            "p3d": {
              "x": 3.289,
              "y": 7.1626,
              "z": 10.7898
            }
          },
          {
            "elSymbol": "O",
            "p3d": {
              "x": 4.7494,
              "y": 7.4238,
              "z": 10.5812
            }
          },
          {
            "elSymbol": "O",
            "p3d": {
              "x": 2.8666,
              "y": 5.9079,
              "z": 10.2063
            }
          },
          {
            "elSymbol": "O",
            "p3d": {
              "x": 2.5225,
              "y": 8.319,
              "z": 10.3914
            }
          }
        ],
        "bonds": [
          {
            "atomIds": [
              0,
              1
            ],
            "bo": "SINGLE"
          },
          {
            "atomIds": [
              2,
              0
            ],
            "bo": "DOUBLE"
          },
          {
            "atomIds": [
              3,
              0
            ],
            "bo": "DOUBLE"
          }
        ]
      },
      "vertexId": 10747,
      "buildingBlockId": 76,
      "buildingBlockType": "FRAGMENT",
      "isRCV": false,
      "properties": {
        "ATTACHMENT_POINTS": "1#bridge:1:SINGLE:3.1219%7.0322%12.5700 2#Xlig:1:SINGLE:5.9830%5.6590%10.7602 "
      },
      "uniquefyingPropertyKeys": [],
      "allowedMutationTypes": [
        "DELETE",
        "EXTEND",
        "CHANGEBRANCH",
        "CHANGELINK",
        "ADDLINK",
        "DELETELINK",
        "DELETECHAIN"
      ],
      "vertexType": "MolecularFragment"
    },
    {
      "lstAPs": [
        {
          "id": 19185478,
          "atomPositionNumber": 0,
          "atomPositionNumberInMol": 42,
          "apClass": {
            "rule": "bridge",
            "subClass": 0,
            "bndTyp": "SINGLE"
          },
          "dirVec": {
            "x": -1.2321,
            "y": -0.7501,
            "z": -0.255
          }
        },
        {
          "id": 19185479,
          "atomPositionNumber": 2,
          "atomPositionNumberInMol": 44,
          "apClass": {
            "rule": "bridge",
            "subClass": 0,
            "bndTyp": "SINGLE"
          },
          "dirVec": {
            "x": 1.2657,
            "y": -0.692,
            "z": -0.255
          }
        }
      ],
      "lstSymAPs": [
        {
          "symIds": [
            0,
            1
          ]
        }
      ],
      "mol": {
        "atoms": [
          {
            "elSymbol": "C",
            "p3d": {
              "x": -1.2657,
              "y": 0.692,
              "z": 0.255
            }
          },
          {
            "elSymbol": "C",
            "p3d": {
              "x": -0.0335,
              "y": 1.4421,
              "z": -0.255
            }
          },
          {
            "elSymbol": "C",
            "p3d": {
              "x": 1.2321,
              "y": 0.7501,
              "z": 0.255
            }
          },
          {
            "elSymbol": "H",
            "p3d": {
              "x": -2.1673,
              "y": 1.1851,
              "z": -0.1083
            }
          },
          {
            "elSymbol": "H",
            "p3d": {
              "x": -1.2657,
              "y": 0.692,
              "z": 1.345
            }
          },
          {
            "elSymbol": "H",
            "p3d": {
              "x": -0.0335,
              "y": 1.4421,
              "z": -1.345
            }
          },
          {
            "elSymbol": "H",
            "p3d": {
              "x": -0.0574,
              "y": 2.4695,
              "z": 0.1083
            }
          },
          {
            "elSymbol": "H",
            "p3d": {
              "x": 2.11,
              "y": 1.2844,
              "z": -0.1083
            }
          },
          {
            "elSymbol": "H",
            "p3d": {
              "x": 1.2321,
              "y": 0.7501,
              "z": 1.345
            }
          }
        ],
        "bonds": [
          {
            "atomIds": [
              0,
              1
            ],
            "bo": "SINGLE"
          },
          {
            "atomIds": [
              1,
              2
            ],
            "bo": "SINGLE"
          },
          {
            "atomIds": [
              0,
              3
            ],
            "bo": "SINGLE"
          },
          {
            "atomIds": [
              0,
              4
            ],
            "bo": "SINGLE"
          },
          {
            "atomIds": [
              1,
              5
            ],
            "bo": "SINGLE"
          },
          {
            "atomIds": [
              1,
              6
            ],
            "bo": "SINGLE"
          },
          {
            "atomIds": [
              2,
              7
            ],
            "bo": "SINGLE"
          },
          {
            "atomIds": [
              2,
              8
            ],
            "bo": "SINGLE"
          }
        ]
      },
      "vertexId": 222261,
      "buildingBlockId": 64,
      "buildingBlockType": "FRAGMENT",
      "isRCV": false,
      "properties": {
        "ATTACHMENT_POINTS": "1#bridge:0:SINGLE:-1.2321%-0.7501%-0.2550 3#bridge:0:SINGLE:1.2657%-0.6920%-0.2550 "
      },
      "uniquefyingPropertyKeys": [],
      "allowedMutationTypes": [
        "DELETE",
        "EXTEND",
        "CHANGEBRANCH",
        "CHANGELINK",
        "ADDLINK",
        "DELETELINK",
        "DELETECHAIN"
      ],
      "vertexType": "MolecularFragment"
    },
    {
      "lstAPs": [
        {
          "id": 19185480,
          "atomPositionNumber": 0,
          "atomPositionNumberInMol": 28,
          "apClass": {
            "rule": "bridge",
            "subClass": 0,
            "bndTyp": "SINGLE"
          },
          "dirVec": {
            "x": -1.2321,
            "y": -0.7501,
            "z": -0.255
          }
        },
        {
          "id": 19185481,
          "atomPositionNumber": 2,
          "atomPositionNumberInMol": 30,
          "apClass": {
            "rule": "bridge",
            "subClass": 0,
            "bndTyp": "SINGLE"
          },
          "dirVec": {
            "x": 1.2657,
            "y": -0.692,
            "z": -0.255
          }
        }
      ],
      "lstSymAPs": [
        {
          "symIds": [
            0,
            1
          ]
        }
      ],
      "mol": {
        "atoms": [
          {
            "elSymbol": "C",
            "p3d": {
              "x": -1.2657,
              "y": 0.692,
              "z": 0.255
            }
          },
          {
            "elSymbol": "C",
            "p3d": {
              "x": -0.0335,
              "y": 1.4421,
              "z": -0.255
            }
          },
          {
            "elSymbol": "C",
            "p3d": {
              "x": 1.2321,
              "y": 0.7501,
              "z": 0.255
            }
          },
          {
            "elSymbol": "H",
            "p3d": {
              "x": -2.1673,
              "y": 1.1851,
              "z": -0.1083
            }
          },
          {
            "elSymbol": "H",
            "p3d": {
              "x": -1.2657,
              "y": 0.692,
              "z": 1.345
            }
          },
          {
            "elSymbol": "H",
            "p3d": {
              "x": -0.0335,
              "y": 1.4421,
              "z": -1.345
            }
          },
          {
            "elSymbol": "H",
            "p3d": {
              "x": -0.0574,
              "y": 2.4695,
              "z": 0.1083
            }
          },
          {
            "elSymbol": "H",
            "p3d": {
              "x": 2.11,
              "y": 1.2844,
              "z": -0.1083
            }
          },
          {
            "elSymbol": "H",
            "p3d": {
              "x": 1.2321,
              "y": 0.7501,
              "z": 1.345
            }
          }
        ],
        "bonds": [
          {
            "atomIds": [
              0,
              1
            ],
            "bo": "SINGLE"
          },
          {
            "atomIds": [
              1,
              2
            ],
            "bo": "SINGLE"
          },
          {
            "atomIds": [
              0,
              3
            ],
            "bo": "SINGLE"
          },
          {
            "atomIds": [
              0,
              4
            ],
            "bo": "SINGLE"
          },
          {
            "atomIds": [
              1,
              5
            ],
            "bo": "SINGLE"
          },
          {
            "atomIds": [
              1,
              6
            ],
            "bo": "SINGLE"
          },
          {
            "atomIds": [
              2,
              7
            ],
            "bo": "SINGLE"
          },
          {
            "atomIds": [
              2,
              8
            ],
            "bo": "SINGLE"
          }
        ]
      },
      "vertexId": 222216,
      "buildingBlockId": 64,
      "buildingBlockType": "FRAGMENT",
      "isRCV": false,
      "properties": {
        "ATTACHMENT_POINTS": "1#bridge:0:SINGLE:-1.2321%-0.7501%-0.2550 3#bridge:0:SINGLE:1.2657%-0.6920%-0.2550 "
      },
      "uniquefyingPropertyKeys": [],
      "allowedMutationTypes": [
        "DELETE",
        "EXTEND",
        "CHANGEBRANCH",
        "CHANGELINK",
        "ADDLINK",
        "DELETELINK",
        "DELETECHAIN"
      ],
      "vertexType": "MolecularFragment"
    },
    {
      "lstAPs": [
        {
          "id": 19185482,
          "atomPositionNumber": 0,
          "atomPositionNumberInMol": 37,
          "apClass": {
            "rule": "ATminus",
            "subClass": 0,
            "bndTyp": "ANY"
          },
          "dirVec": {
            "x": 0.0109,
            "y": -0.0071,
            "z": 0.0026
          }
        }
      ],
      "lstSymAPs": [],
      "mol": {
        "atoms": [
          {
            "elSymbol": "ATM",
            "p3d": {
              "x": -0.0096,
              "y": 0.0045,
              "z": -0.0011
            }
          }
        ],
        "bonds": []
      },
      "vertexId": 11465540,
      "buildingBlockId": 79,
      "buildingBlockType": "FRAGMENT",
      "isRCV": true,
      "properties": {
        "ATTACHMENT_POINTS": "1#ATminus:0:ANY:0.0109%-0.0071%0.0026 "
      },
      "uniquefyingPropertyKeys": [],
      "allowedMutationTypes": [
        "DELETE",
        "EXTEND",
        "CHANGEBRANCH",
        "CHANGELINK",
        "ADDLINK",
        "DELETELINK",
        "DELETECHAIN"
      ],
      "vertexType": "MolecularFragment"
    },
    {
      "lstAPs": [
        {
          "id": 19185483,
          "atomPositionNumber": 0,
          "atomPositionNumberInMol": 51,
          "apClass": {
            "rule": "ATminus",
            "subClass": 0,
            "bndTyp": "ANY"
          },
          "dirVec": {
            "x": 0.0109,
            "y": -0.0071,
            "z": 0.0026
          }
        }
      ],
      "lstSymAPs": [],
      "mol": {
        "atoms": [
          {
            "elSymbol": "ATM",
            "p3d": {
              "x": -0.0096,
              "y": 0.0045,
              "z": -0.0011
            }
          }
        ],
        "bonds": []
      },
      "vertexId": 11465538,
      "buildingBlockId": 79,
      "buildingBlockType": "FRAGMENT",
      "isRCV": true,
      "properties": {
        "ATTACHMENT_POINTS": "1#ATminus:0:ANY:0.0109%-0.0071%0.0026 "
      },
      "uniquefyingPropertyKeys": [],
      "allowedMutationTypes": [
        "DELETE",
        "EXTEND",
        "CHANGEBRANCH",
        "CHANGELINK",
        "ADDLINK",
        "DELETELINK",
        "DELETECHAIN"
      ],
      "vertexType": "MolecularFragment"
    }
  ],
  "gEdges": [
    {
      "srcAPID": 19185466,
      "trgAPID": 19185468,
      "bondType": "SINGLE"
    },
    {
      "srcAPID": 19185469,
      "trgAPID": 19185471,
      "bondType": "SINGLE"
    },
    {
      "srcAPID": 19185470,
      "trgAPID": 19185472,
      "bondType": "SINGLE"
    },
    {
      "srcAPID": 19185467,
      "trgAPID": 19185473,
      "bondType": "SINGLE"
    },
    {
      "srcAPID": 19185464,
      "trgAPID": 19185474,
      "bondType": "SINGLE"
    },
    {
      "srcAPID": 19185465,
      "trgAPID": 19185476,
      "bondType": "SINGLE"
    },
    {
      "srcAPID": 19185477,
      "trgAPID": 19185479,
      "bondType": "SINGLE"
    },
    {
      "srcAPID": 19185475,
      "trgAPID": 19185481,
      "bondType": "SINGLE"
    },
    {
      "srcAPID": 19185480,
      "trgAPID": 19185482,
      "bondType": "SINGLE"
    },
    {
      "srcAPID": 19185478,
      "trgAPID": 19185483,
      "bondType": "SINGLE"
    }
  ],
  "gRings": [],
  "symVertices": [
    {
      "symIds": [
        159,
        160
      ]
    },
    {
      "symIds": [
        10278,
        10747
      ]
    },
    {
      "symIds": [
        222261,
        222216
      ]
    },
    {
      "symIds": [
        11465540,
        11465538
      ]
    }
  ]
}

> <SMILES>
[Pt](C#O)([P]1(N(C([H])=C(N1[H])[H])[H])C(C([H])([H])[H])(C([H])([H])[H])[H])(OS(=O)(=O)C(C(C([H])([H])[H])([H])[H])([H])[H])OS(=O)(=O)C(C(C([H])([H])[H])([H])[H])([H])[H]

$$$$
