M30007462
  CDK     05072223243D

 37 40  0  0  0  0  0  0  0  0999 V2000
    3.0400   -1.1719   -0.4789 Pt  0  0  0  0  0  0  0  0  0  0  0  0
    4.9870   -1.2780   -0.5492 C   0  0  0  0  0  0  0  0  0  0  0  0
    6.1232   -1.3777   -0.6028 O   0  0  0  0  0  0  0  0  0  0  0  0
    0.7777   -1.2559   -0.4688 P   0  0  0  0  0  0  0  0  0  0  0  0
   -0.1900    0.1026    0.0460 N   0  0  0  0  0  0  0  0  0  0  0  0
   -1.6176   -0.1058   -0.1187 C   0  0  0  0  0  0  0  0  0  0  0  0
   -4.3461   -0.5553   -0.4716 C   0  0  0  0  0  0  0  0  0  0  0  0
   -2.2466    0.3378   -1.2941 C   0  0  0  0  0  0  0  0  0  0  0  0
   -2.3482   -0.7578    0.8889 C   0  0  0  0  0  0  0  0  0  0  0  0
   -3.7139   -0.9821    0.7008 C   0  0  0  0  0  0  0  0  0  0  0  0
   -3.6133    0.1058   -1.4630 C   0  0  0  0  0  0  0  0  0  0  0  0
   -1.6736    0.8627   -2.0596 H   0  0  0  0  0  0  0  0  0  0  0  0
   -1.8573   -1.0737    1.8102 H   0  0  0  0  0  0  0  0  0  0  0  0
   -4.2893   -1.4882    1.4763 H   0  0  0  0  0  0  0  0  0  0  0  0
   -4.1102    0.4458   -2.3720 H   0  0  0  0  0  0  0  0  0  0  0  0
   -5.4117   -0.7332   -0.6107 H   0  0  0  0  0  0  0  0  0  0  0  0
    0.3168    1.3234    0.5876 C   0  0  0  0  0  0  0  0  0  0  0  0
    1.2288    3.7437    1.6797 C   0  0  0  0  0  0  0  0  0  0  0  0
    1.6934    1.6249    0.5751 C   0  0  0  0  0  0  0  0  0  0  0  0
   -0.6007    2.2427    1.1438 C   0  0  0  0  0  0  0  0  0  0  0  0
   -0.1367    3.4411    1.6824 C   0  0  0  0  0  0  0  0  0  0  0  0
    2.1312    2.8329    1.1259 C   0  0  0  0  0  0  0  0  0  0  0  0
    2.4487    0.9616    0.1408 H   0  0  0  0  0  0  0  0  0  0  0  0
   -1.6667    2.0251    1.1595 H   0  0  0  0  0  0  0  0  0  0  0  0
   -0.8485    4.1472    2.1111 H   0  0  0  0  0  0  0  0  0  0  0  0
    3.1973    3.0638    1.1177 H   0  0  0  0  0  0  0  0  0  0  0  0
    1.5840    4.6788    2.1039 H   0  0  0  0  0  0  0  0  0  0  0  0
    2.9232   -0.5145   -2.7269 S   0  0  0  0  0  0  0  0  0  0  0  0
    1.3552   -1.2275   -3.1083 C   0  0  0  0  0  0  0  0  0  0  0  0
    0.4123   -1.5793   -2.2310 C   0  0  0  0  0  0  0  0  0  0  0  0
    1.2118   -1.3454   -4.1909 H   0  0  0  0  0  0  0  0  0  0  0  0
   -0.5483   -2.0089   -2.4975 H   0  0  0  0  0  0  0  0  0  0  0  0
    2.9970   -2.0737    1.6849 S   0  0  0  0  0  0  0  0  0  0  0  0
    1.4464   -2.9070    1.5629 C   0  0  0  0  0  0  0  0  0  0  0  0
    0.4747   -2.6421    0.6863 C   0  0  0  0  0  0  0  0  0  0  0  0
    1.3421   -3.6920    2.3239 H   0  0  0  0  0  0  0  0  0  0  0  0
   -0.4720   -3.1698    0.6362 H   0  0  0  0  0  0  0  0  0  0  0  0
  2  3  3  0  0  0  0
  1  2  1  0  0  0  0
  1  4  1  0  0  0  0
  4  5  1  0  0  0  0
  6  9  1  0  0  0  0
  9 10  2  0  0  0  0
  7 10  1  0  0  0  0
  7 11  2  0  0  0  0
  8 11  1  0  0  0  0
  6  8  2  0  0  0  0
 10 14  1  0  0  0  0
 11 15  1  0  0  0  0
  7 16  1  0  0  0  0
  8 12  1  0  0  0  0
  9 13  1  0  0  0  0
  5  6  1  0  0  0  0
 17 20  1  0  0  0  0
 20 21  2  0  0  0  0
 18 21  1  0  0  0  0
 18 22  2  0  0  0  0
 19 22  1  0  0  0  0
 17 19  2  0  0  0  0
 21 25  1  0  0  0  0
 22 26  1  0  0  0  0
 18 27  1  0  0  0  0
 19 23  1  0  0  0  0
 20 24  1  0  0  0  0
  5 17  1  0  0  0  0
  1 28  1  0  0  0  0
 29 30  2  0  0  0  0
 29 31  1  0  0  0  0
 28 29  1  0  0  0  0
 30 32  1  0  0  0  0
  1 33  1  0  0  0  0
 34 35  2  0  0  0  0
 34 36  1  0  0  0  0
 33 34  1  0  0  0  0
 35 37  1  0  0  0  0
  4 35  1  0  0  0  0
  4 30  1  0  0  0  0
M  END
> <PM6_ENERGY>
281.323

> <UID>
HETUSKKCYUBQPS-CPORGCCFNA-L

> <FITNESS>
1.14182

> <GCODE>
30663

> <GraphENC>
30663 1241625_1_0,1241626_4_1,1241627_79_1,1241628_79_1,1241629_74_1,1241630_74_1,1241631_6_1,1241632_72_1,1241633_29_1,1241634_29_1,1241635_72_1,1241636_80_1,1241637_1_2,1241638_80_1,1241639_1_2, 1241625_2_1241626_3_SINGLE_scaff:0_MMonoAminoPhosphine:1,1241626_1_1241627_0_SINGLE_LMonoAminoPhosphineSubR:0_ATplus:0,1241626_2_1241628_0_SINGLE_LMonoAminoPhosphineSubR:0_ATplus:0,1241625_0_1241629_0_SINGLE_Xlig:0_Xlig:1,1241625_1_1241630_0_SINGLE_Xlig:0_Xlig:1,1241626_0_1241631_0_SINGLE_LMonoAminoPhosphineN:0_LAminoPhosphineN:1,1241629_1_1241632_0_SINGLE_bridge:1_bridge:0,1241631_2_1241633_0_SINGLE_AminoPhosphineSubN:0_SubArS:1,1241631_1_1241634_0_SINGLE_AminoPhosphineSubN:0_SubArS:1,1241630_1_1241635_0_SINGLE_bridge:1_bridge:0,1241635_1_1241636_0_SINGLE_bridge:0_ATminus:0,1241632_2_1241637_0_SINGLE_SubBridge:0_hyd:1,1241632_1_1241638_0_SINGLE_bridge:0_ATminus:0,1241635_2_1241639_0_SINGLE_SubBridge:0_hyd:1, DENOPTIMRing [vertices=[1241628_79_1, 1241626_4_1, 1241625_1_0, 1241630_74_1, 1241635_72_1, 1241636_80_1]] DENOPTIMRing [vertices=[1241627_79_1, 1241626_4_1, 1241625_1_0, 1241629_74_1, 1241632_72_1, 1241638_80_1]] SymmetricSet [symIds=[1241627, 1241628]] SymmetricSet [symIds=[1241629, 1241630]] SymmetricSet [symIds=[1241632, 1241635]] SymmetricSet [symIds=[1241633, 1241634]] SymmetricSet [symIds=[1241636, 1241638]] SymmetricSet [symIds=[1241637, 1241639]] 

> <GraphJson>
{
  "graphId": 30663,
  "gVertices": [
    {
      "lstAPs": [
        {
          "id": 2046060,
          "atomPositionNumber": 0,
          "atomPositionNumberInMol": -1,
          "apClass": {
            "rule": "Xlig",
            "subClass": 0,
            "bndTyp": "SINGLE"
          },
          "dirVec": {
            "x": -2.3339,
            "y": -0.0087,
            "z": 0.8172
          }
        },
        {
          "id": 2046061,
          "atomPositionNumber": 0,
          "atomPositionNumberInMol": -1,
          "apClass": {
            "rule": "Xlig",
            "subClass": 0,
            "bndTyp": "SINGLE"
          },
          "dirVec": {
            "x": 2.336,
            "y": -5.0E-4,
            "z": 0.829
          }
        },
        {
          "id": 2046062,
          "atomPositionNumber": 0,
          "atomPositionNumberInMol": -1,
          "apClass": {
            "rule": "scaff",
            "subClass": 0,
            "bndTyp": "SINGLE"
          },
          "dirVec": {
            "x": -0.0095,
            "y": 0.0046,
            "z": -1.7113
          }
        }
      ],
      "lstSymAPs": [
        {
          "symIds": [
            0,
            1
          ]
        }
      ],
      "mol": {
        "atoms": [
          {
            "elSymbol": "Pt",
            "p3d": {
              "x": -0.0098,
              "y": 0.0049,
              "z": 0.6289
            }
          },
          {
            "elSymbol": "C",
            "p3d": {
              "x": -6.0E-4,
              "y": 0.0016,
              "z": 2.5609
            }
          },
          {
            "elSymbol": "O",
            "p3d": {
              "x": 0.0025,
              "y": -0.0041,
              "z": 3.6974
            }
          },
          {
            "elSymbol": "Du",
            "p3d": {
              "x": -0.007,
              "y": 1.0013,
              "z": 0.6372
            }
          },
          {
            "elSymbol": "Du",
            "p3d": {
              "x": -0.0014,
              "y": 0.9902,
              "z": 2.5698
            }
          }
        ],
        "bonds": [
          {
            "atomIds": [
              1,
              2
            ],
            "bo": "TRIPLE"
          },
          {
            "atomIds": [
              0,
              1
            ],
            "bo": "SINGLE"
          },
          {
            "atomIds": [
              3,
              0
            ],
            "bo": "SINGLE"
          },
          {
            "atomIds": [
              4,
              1
            ],
            "bo": "SINGLE"
          }
        ]
      },
      "vertexId": 1241625,
      "buildingBlockId": 0,
      "buildingBlockType": "SCAFFOLD",
      "isRCV": false,
      "properties": {
        "ATTACHMENT_POINTS": "1#Xlig:0:SINGLE:-2.3339%-0.0087%0.8172,Xlig:0:SINGLE:2.3360%-0.0005%0.8290,scaff:0:SINGLE:-0.0095%0.0046%-1.7113 ",
        "OLDVERTEXID": 169
      },
      "uniquefyingPropertyKeys": [],
      "allowedMutationTypes": [
        "DELETE",
        "EXTEND",
        "CHANGEBRANCH",
        "CHANGELINK",
        "ADDLINK",
        "DELETELINK",
        "DELETECHAIN"
      ],
      "vertexType": "MolecularFragment"
    },
    {
      "lstAPs": [
        {
          "id": 2046063,
          "atomPositionNumber": 0,
          "atomPositionNumberInMol": -1,
          "apClass": {
            "rule": "LMonoAminoPhosphineN",
            "subClass": 0,
            "bndTyp": "SINGLE"
          },
          "dirVec": {
            "x": 1.5576360714278132,
            "y": 0.04489007948791429,
            "z": -2.241202695388179
          }
        },
        {
          "id": 2046064,
          "atomPositionNumber": 0,
          "atomPositionNumberInMol": -1,
          "apClass": {
            "rule": "LMonoAminoPhosphineSubR",
            "subClass": 0,
            "bndTyp": "SINGLE"
          },
          "dirVec": {
            "x": -0.7810356757784612,
            "y": -1.5410049186499182,
            "z": -2.385973734275668
          }
        },
        {
          "id": 2046065,
          "atomPositionNumber": 0,
          "atomPositionNumberInMol": -1,
          "apClass": {
            "rule": "LMonoAminoPhosphineSubR",
            "subClass": 0,
            "bndTyp": "SINGLE"
          },
          "dirVec": {
            "x": -0.8999787291693976,
            "y": 1.4011327409517724,
            "z": -2.44926553472034
          }
        },
        {
          "id": 2046066,
          "atomPositionNumber": 0,
          "atomPositionNumberInMol": -1,
          "apClass": {
            "rule": "MMonoAminoPhosphine",
            "subClass": 1,
            "bndTyp": "SINGLE"
          },
          "dirVec": {
            "x": -0.009798817884168738,
            "y": 0.004898817884168566,
            "z": 0.6196787084387736
          }
        }
      ],
      "lstSymAPs": [
        {
          "symIds": [
            1,
            2
          ]
        }
      ],
      "mol": {
        "atoms": [
          {
            "elSymbol": "P",
            "p3d": {
              "x": -0.009501182115831262,
              "y": 0.0046011821158314335,
              "z": -1.702078708438774
            }
          }
        ],
        "bonds": []
      },
      "vertexId": 1241626,
      "buildingBlockId": 3,
      "buildingBlockType": "FRAGMENT",
      "isRCV": false,
      "properties": {
        "ATTACHMENT_POINTS": "1#LMonoAminoPhosphineN:0:SINGLE:1.5576%0.0449%-2.2412,LMonoAminoPhosphineSubR:0:SINGLE:-0.7810%-1.5410%-2.3860,LMonoAminoPhosphineSubR:0:SINGLE:-0.9000%1.4011%-2.4493,MMonoAminoPhosphine:1:SINGLE:-0.0098%0.0049%0.6197 ",
        "OLDVERTEXID": 170
      },
      "uniquefyingPropertyKeys": [],
      "allowedMutationTypes": [
        "DELETE",
        "EXTEND",
        "CHANGEBRANCH",
        "CHANGELINK",
        "ADDLINK",
        "DELETELINK",
        "DELETECHAIN"
      ],
      "vertexType": "MolecularFragment"
    },
    {
      "lstAPs": [
        {
          "id": 2046067,
          "atomPositionNumber": 0,
          "atomPositionNumberInMol": -1,
          "apClass": {
            "rule": "ATplus",
            "subClass": 0,
            "bndTyp": "ANY"
          },
          "dirVec": {
            "x": -0.7810356757784612,
            "y": -1.5410049186499182,
            "z": -2.385973734275668
          }
        }
      ],
      "lstSymAPs": [],
      "mol": {
        "atoms": [
          {
            "elSymbol": "ATP",
            "p3d": {
              "x": -0.7897530259255463,
              "y": -1.5584682850716631,
              "z": -2.393700870849651
            }
          }
        ],
        "bonds": []
      },
      "vertexId": 1241627,
      "buildingBlockId": 78,
      "buildingBlockType": "FRAGMENT",
      "isRCV": true,
      "properties": {
        "ATTACHMENT_POINTS": "1#ATplus:0:ANY:-0.7810%-1.5410%-2.3860 ",
        "OLDVERTEXID": 171
      },
      "uniquefyingPropertyKeys": [],
      "allowedMutationTypes": [
        "DELETE",
        "EXTEND",
        "CHANGEBRANCH",
        "CHANGELINK",
        "ADDLINK",
        "DELETELINK",
        "DELETECHAIN"
      ],
      "vertexType": "MolecularFragment"
    },
    {
      "lstAPs": [
        {
          "id": 2046068,
          "atomPositionNumber": 0,
          "atomPositionNumberInMol": -1,
          "apClass": {
            "rule": "ATplus",
            "subClass": 0,
            "bndTyp": "ANY"
          },
          "dirVec": {
            "x": -0.8999787291693976,
            "y": 1.4011327409517724,
            "z": -2.44926553472034
          }
        }
      ],
      "lstSymAPs": [],
      "mol": {
        "atoms": [
          {
            "elSymbol": "ATP",
            "p3d": {
              "x": -0.9102665054814141,
              "y": 1.4172670099600302,
              "z": -2.457897858979952
            }
          }
        ],
        "bonds": []
      },
      "vertexId": 1241628,
      "buildingBlockId": 78,
      "buildingBlockType": "FRAGMENT",
      "isRCV": true,
      "properties": {
        "ATTACHMENT_POINTS": "1#ATplus:0:ANY:-0.9000%1.4011%-2.4493 ",
        "OLDVERTEXID": 172
      },
      "uniquefyingPropertyKeys": [],
      "allowedMutationTypes": [
        "DELETE",
        "EXTEND",
        "CHANGEBRANCH",
        "CHANGELINK",
        "ADDLINK",
        "DELETELINK",
        "DELETECHAIN"
      ],
      "vertexType": "MolecularFragment"
    },
    {
      "lstAPs": [
        {
          "id": 2046069,
          "atomPositionNumber": 0,
          "atomPositionNumberInMol": -1,
          "apClass": {
            "rule": "Xlig",
            "subClass": 1,
            "bndTyp": "SINGLE"
          },
          "dirVec": {
            "x": -0.102,
            "y": 0.0185,
            "z": -1.0265
          }
        },
        {
          "id": 2046070,
          "atomPositionNumber": 0,
          "atomPositionNumberInMol": -1,
          "apClass": {
            "rule": "bridge",
            "subClass": 1,
            "bndTyp": "SINGLE"
          },
          "dirVec": {
            "x": -0.626,
            "y": 2.4866,
            "z": 0.7805
          }
        }
      ],
      "lstSymAPs": [],
      "mol": {
        "atoms": [
          {
            "elSymbol": "S",
            "p3d": {
              "x": -0.3267,
              "y": 2.3403,
              "z": -1.0022
            }
          }
        ],
        "bonds": []
      },
      "vertexId": 1241629,
      "buildingBlockId": 73,
      "buildingBlockType": "FRAGMENT",
      "isRCV": false,
      "properties": {
        "ATTACHMENT_POINTS": "1#Xlig:1:SINGLE:-0.1020%0.0185%-1.0265,bridge:1:SINGLE:-0.6260%2.4866%0.7805 ",
        "OLDVERTEXID": 12615
      },
      "uniquefyingPropertyKeys": [],
      "allowedMutationTypes": [
        "DELETE",
        "EXTEND",
        "CHANGEBRANCH",
        "CHANGELINK",
        "ADDLINK",
        "DELETELINK",
        "DELETECHAIN"
      ],
      "vertexType": "MolecularFragment"
    },
    {
      "lstAPs": [
        {
          "id": 2046071,
          "atomPositionNumber": 0,
          "atomPositionNumberInMol": -1,
          "apClass": {
            "rule": "Xlig",
            "subClass": 1,
            "bndTyp": "SINGLE"
          },
          "dirVec": {
            "x": -0.102,
            "y": 0.0185,
            "z": -1.0265
          }
        },
        {
          "id": 2046072,
          "atomPositionNumber": 0,
          "atomPositionNumberInMol": -1,
          "apClass": {
            "rule": "bridge",
            "subClass": 1,
            "bndTyp": "SINGLE"
          },
          "dirVec": {
            "x": -0.626,
            "y": 2.4866,
            "z": 0.7805
          }
        }
      ],
      "lstSymAPs": [],
      "mol": {
        "atoms": [
          {
            "elSymbol": "S",
            "p3d": {
              "x": -0.3267,
              "y": 2.3403,
              "z": -1.0022
            }
          }
        ],
        "bonds": []
      },
      "vertexId": 1241630,
      "buildingBlockId": 73,
      "buildingBlockType": "FRAGMENT",
      "isRCV": false,
      "properties": {
        "ATTACHMENT_POINTS": "1#Xlig:1:SINGLE:-0.1020%0.0185%-1.0265,bridge:1:SINGLE:-0.6260%2.4866%0.7805 ",
        "OLDVERTEXID": 12773
      },
      "uniquefyingPropertyKeys": [],
      "allowedMutationTypes": [
        "DELETE",
        "EXTEND",
        "CHANGEBRANCH",
        "CHANGELINK",
        "ADDLINK",
        "DELETELINK",
        "DELETECHAIN"
      ],
      "vertexType": "MolecularFragment"
    },
    {
      "lstAPs": [
        {
          "id": 2046073,
          "atomPositionNumber": 0,
          "atomPositionNumberInMol": -1,
          "apClass": {
            "rule": "LAminoPhosphineN",
            "subClass": 1,
            "bndTyp": "SINGLE"
          },
          "dirVec": {
            "x": 6.6462,
            "y": 11.4323,
            "z": 3.6382
          }
        },
        {
          "id": 2046074,
          "atomPositionNumber": 0,
          "atomPositionNumberInMol": -1,
          "apClass": {
            "rule": "AminoPhosphineSubN",
            "subClass": 0,
            "bndTyp": "SINGLE"
          },
          "dirVec": {
            "x": 8.2507,
            "y": 9.4804,
            "z": 2.5125
          }
        },
        {
          "id": 2046075,
          "atomPositionNumber": 0,
          "atomPositionNumberInMol": -1,
          "apClass": {
            "rule": "AminoPhosphineSubN",
            "subClass": 0,
            "bndTyp": "SINGLE"
          },
          "dirVec": {
            "x": 8.652,
            "y": 10.1585,
            "z": 4.8699
          }
        }
      ],
      "lstSymAPs": [
        {
          "symIds": [
            1,
            2
          ]
        }
      ],
      "mol": {
        "atoms": [
          {
            "elSymbol": "N",
            "p3d": {
              "x": 7.9829,
              "y": 10.4428,
              "z": 3.602
            }
          }
        ],
        "bonds": []
      },
      "vertexId": 1241631,
      "buildingBlockId": 5,
      "buildingBlockType": "FRAGMENT",
      "isRCV": false,
      "properties": {
        "ATTACHMENT_POINTS": "1#LAminoPhosphineN:1:SINGLE:6.6462%11.4323%3.6382,AminoPhosphineSubN:0:SINGLE:8.2507%9.4804%2.5125,AminoPhosphineSubN:0:SINGLE:8.6520%10.1585%4.8699 ",
        "OLDVERTEXID": 12627
      },
      "uniquefyingPropertyKeys": [],
      "allowedMutationTypes": [
        "DELETE",
        "EXTEND",
        "CHANGEBRANCH",
        "CHANGELINK",
        "ADDLINK",
        "DELETELINK",
        "DELETECHAIN"
      ],
      "vertexType": "MolecularFragment"
    },
    {
      "lstAPs": [
        {
          "id": 2046076,
          "atomPositionNumber": 0,
          "atomPositionNumberInMol": -1,
          "apClass": {
            "rule": "bridge",
            "subClass": 0,
            "bndTyp": "SINGLE"
          },
          "dirVec": {
            "x": 1.9789000000000003,
            "y": 0.17000000000000004,
            "z": 0.0
          }
        },
        {
          "id": 2046077,
          "atomPositionNumber": 1,
          "atomPositionNumberInMol": -1,
          "apClass": {
            "rule": "bridge",
            "subClass": 0,
            "bndTyp": "SINGLE"
          },
          "dirVec": {
            "x": -0.3006,
            "y": -1.4852,
            "z": 0.0
          }
        },
        {
          "id": 2046078,
          "atomPositionNumber": 1,
          "atomPositionNumberInMol": -1,
          "apClass": {
            "rule": "SubBridge",
            "subClass": 0,
            "bndTyp": "SINGLE"
          },
          "dirVec": {
            "x": -1.8343,
            "y": 0.6268,
            "z": 0.0
          }
        }
      ],
      "lstSymAPs": [],
      "mol": {
        "atoms": [
          {
            "elSymbol": "C",
            "p3d": {
              "x": 0.6023,
              "y": 0.7833,
              "z": 0.0
            }
          },
          {
            "elSymbol": "C",
            "p3d": {
              "x": -0.4578,
              "y": 0.0135,
              "z": 0.0
            }
          },
          {
            "elSymbol": "H",
            "p3d": {
              "x": 0.4897,
              "y": 1.8574,
              "z": 0.0
            }
          }
        ],
        "bonds": [
          {
            "atomIds": [
              0,
              1
            ],
            "bo": "DOUBLE"
          },
          {
            "atomIds": [
              0,
              2
            ],
            "bo": "SINGLE"
          }
        ]
      },
      "vertexId": 1241632,
      "buildingBlockId": 71,
      "buildingBlockType": "FRAGMENT",
      "isRCV": false,
      "properties": {
        "ATTACHMENT_POINTS": "1#bridge:0:SINGLE:1.9789%0.1700%0.0000 2#bridge:0:SINGLE:-0.3006%-1.4852%0.0000,SubBridge:0:SINGLE:-1.8343%0.6268%0.0000 ",
        "OLDVERTEXID": 281438
      },
      "uniquefyingPropertyKeys": [],
      "allowedMutationTypes": [
        "DELETE",
        "EXTEND",
        "CHANGEBRANCH",
        "CHANGELINK",
        "ADDLINK",
        "DELETELINK",
        "DELETECHAIN"
      ],
      "vertexType": "MolecularFragment"
    },
    {
      "lstAPs": [
        {
          "id": 2046079,
          "atomPositionNumber": 0,
          "atomPositionNumberInMol": -1,
          "apClass": {
            "rule": "SubArS",
            "subClass": 1,
            "bndTyp": "SINGLE"
          },
          "dirVec": {
            "x": 0.2973,
            "y": 0.3873,
            "z": -0.6389
          }
        }
      ],
      "lstSymAPs": [],
      "mol": {
        "atoms": [
          {
            "elSymbol": "C",
            "p3d": {
              "x": 1.6995,
              "y": 0.5593,
              "z": -1.2083
            }
          },
          {
            "elSymbol": "C",
            "p3d": {
              "x": 4.2563,
              "y": 0.8754,
              "z": -2.2592
            }
          },
          {
            "elSymbol": "C",
            "p3d": {
              "x": 2.3334,
              "y": 1.79,
              "z": -1.1338
            }
          },
          {
            "elSymbol": "C",
            "p3d": {
              "x": 2.3422,
              "y": -0.5107,
              "z": -1.8125
            }
          },
          {
            "elSymbol": "C",
            "p3d": {
              "x": 3.612,
              "y": -0.3527,
              "z": -2.3321
            }
          },
          {
            "elSymbol": "C",
            "p3d": {
              "x": 3.6062,
              "y": 1.9513,
              "z": -1.6526
            }
          },
          {
            "elSymbol": "H",
            "p3d": {
              "x": 1.833,
              "y": 2.6461,
              "z": -0.6488
            }
          },
          {
            "elSymbol": "H",
            "p3d": {
              "x": 1.8361,
              "y": -1.4773,
              "z": -1.887
            }
          },
          {
            "elSymbol": "H",
            "p3d": {
              "x": 4.115,
              "y": -1.2043,
              "z": -2.8152
            }
          },
          {
            "elSymbol": "H",
            "p3d": {
              "x": 4.1097,
              "y": 2.9214,
              "z": -1.5842
            }
          },
          {
            "elSymbol": "H",
            "p3d": {
              "x": 5.2498,
              "y": 0.9926,
              "z": -2.665
            }
          }
        ],
        "bonds": [
          {
            "atomIds": [
              0,
              3
            ],
            "bo": "SINGLE"
          },
          {
            "atomIds": [
              3,
              4
            ],
            "bo": "DOUBLE"
          },
          {
            "atomIds": [
              1,
              4
            ],
            "bo": "SINGLE"
          },
          {
            "atomIds": [
              1,
              5
            ],
            "bo": "DOUBLE"
          },
          {
            "atomIds": [
              2,
              5
            ],
            "bo": "SINGLE"
          },
          {
            "atomIds": [
              0,
              2
            ],
            "bo": "DOUBLE"
          },
          {
            "atomIds": [
              4,
              8
            ],
            "bo": "SINGLE"
          },
          {
            "atomIds": [
              5,
              9
            ],
            "bo": "SINGLE"
          },
          {
            "atomIds": [
              1,
              10
            ],
            "bo": "SINGLE"
          },
          {
            "atomIds": [
              2,
              6
            ],
            "bo": "SINGLE"
          },
          {
            "atomIds": [
              3,
              7
            ],
            "bo": "SINGLE"
          }
        ]
      },
      "vertexId": 1241633,
      "buildingBlockId": 28,
      "buildingBlockType": "FRAGMENT",
      "isRCV": false,
      "properties": {
        "ATTACHMENT_POINTS": "1#SubArS:1:SINGLE:0.2973%0.3873%-0.6389 ",
        "OLDVERTEXID": 284254
      },
      "uniquefyingPropertyKeys": [],
      "allowedMutationTypes": [
        "DELETE",
        "EXTEND",
        "CHANGEBRANCH",
        "CHANGELINK",
        "ADDLINK",
        "DELETELINK",
        "DELETECHAIN"
      ],
      "vertexType": "MolecularFragment"
    },
    {
      "lstAPs": [
        {
          "id": 2046080,
          "atomPositionNumber": 0,
          "atomPositionNumberInMol": -1,
          "apClass": {
            "rule": "SubArS",
            "subClass": 1,
            "bndTyp": "SINGLE"
          },
          "dirVec": {
            "x": 0.2973,
            "y": 0.3873,
            "z": -0.6389
          }
        }
      ],
      "lstSymAPs": [],
      "mol": {
        "atoms": [
          {
            "elSymbol": "C",
            "p3d": {
              "x": 1.6995,
              "y": 0.5593,
              "z": -1.2083
            }
          },
          {
            "elSymbol": "C",
            "p3d": {
              "x": 4.2563,
              "y": 0.8754,
              "z": -2.2592
            }
          },
          {
            "elSymbol": "C",
            "p3d": {
              "x": 2.3334,
              "y": 1.79,
              "z": -1.1338
            }
          },
          {
            "elSymbol": "C",
            "p3d": {
              "x": 2.3422,
              "y": -0.5107,
              "z": -1.8125
            }
          },
          {
            "elSymbol": "C",
            "p3d": {
              "x": 3.612,
              "y": -0.3527,
              "z": -2.3321
            }
          },
          {
            "elSymbol": "C",
            "p3d": {
              "x": 3.6062,
              "y": 1.9513,
              "z": -1.6526
            }
          },
          {
            "elSymbol": "H",
            "p3d": {
              "x": 1.833,
              "y": 2.6461,
              "z": -0.6488
            }
          },
          {
            "elSymbol": "H",
            "p3d": {
              "x": 1.8361,
              "y": -1.4773,
              "z": -1.887
            }
          },
          {
            "elSymbol": "H",
            "p3d": {
              "x": 4.115,
              "y": -1.2043,
              "z": -2.8152
            }
          },
          {
            "elSymbol": "H",
            "p3d": {
              "x": 4.1097,
              "y": 2.9214,
              "z": -1.5842
            }
          },
          {
            "elSymbol": "H",
            "p3d": {
              "x": 5.2498,
              "y": 0.9926,
              "z": -2.665
            }
          }
        ],
        "bonds": [
          {
            "atomIds": [
              0,
              3
            ],
            "bo": "SINGLE"
          },
          {
            "atomIds": [
              3,
              4
            ],
            "bo": "DOUBLE"
          },
          {
            "atomIds": [
              1,
              4
            ],
            "bo": "SINGLE"
          },
          {
            "atomIds": [
              1,
              5
            ],
            "bo": "DOUBLE"
          },
          {
            "atomIds": [
              2,
              5
            ],
            "bo": "SINGLE"
          },
          {
            "atomIds": [
              0,
              2
            ],
            "bo": "DOUBLE"
          },
          {
            "atomIds": [
              4,
              8
            ],
            "bo": "SINGLE"
          },
          {
            "atomIds": [
              5,
              9
            ],
            "bo": "SINGLE"
          },
          {
            "atomIds": [
              1,
              10
            ],
            "bo": "SINGLE"
          },
          {
            "atomIds": [
              2,
              6
            ],
            "bo": "SINGLE"
          },
          {
            "atomIds": [
              3,
              7
            ],
            "bo": "SINGLE"
          }
        ]
      },
      "vertexId": 1241634,
      "buildingBlockId": 28,
      "buildingBlockType": "FRAGMENT",
      "isRCV": false,
      "properties": {
        "ATTACHMENT_POINTS": "1#SubArS:1:SINGLE:0.2973%0.3873%-0.6389 ",
        "OLDVERTEXID": 281446
      },
      "uniquefyingPropertyKeys": [],
      "allowedMutationTypes": [
        "DELETE",
        "EXTEND",
        "CHANGEBRANCH",
        "CHANGELINK",
        "ADDLINK",
        "DELETELINK",
        "DELETECHAIN"
      ],
      "vertexType": "MolecularFragment"
    },
    {
      "lstAPs": [
        {
          "id": 2046081,
          "atomPositionNumber": 0,
          "atomPositionNumberInMol": -1,
          "apClass": {
            "rule": "bridge",
            "subClass": 0,
            "bndTyp": "SINGLE"
          },
          "dirVec": {
            "x": 1.9789000000000003,
            "y": 0.17000000000000004,
            "z": 0.0
          }
        },
        {
          "id": 2046082,
          "atomPositionNumber": 1,
          "atomPositionNumberInMol": -1,
          "apClass": {
            "rule": "bridge",
            "subClass": 0,
            "bndTyp": "SINGLE"
          },
          "dirVec": {
            "x": -0.3006,
            "y": -1.4852,
            "z": 0.0
          }
        },
        {
          "id": 2046083,
          "atomPositionNumber": 1,
          "atomPositionNumberInMol": -1,
          "apClass": {
            "rule": "SubBridge",
            "subClass": 0,
            "bndTyp": "SINGLE"
          },
          "dirVec": {
            "x": -1.8343,
            "y": 0.6268,
            "z": 0.0
          }
        }
      ],
      "lstSymAPs": [],
      "mol": {
        "atoms": [
          {
            "elSymbol": "C",
            "p3d": {
              "x": 0.6023,
              "y": 0.7833,
              "z": 0.0
            }
          },
          {
            "elSymbol": "C",
            "p3d": {
              "x": -0.4578,
              "y": 0.0135,
              "z": 0.0
            }
          },
          {
            "elSymbol": "H",
            "p3d": {
              "x": 0.4897,
              "y": 1.8574,
              "z": 0.0
            }
          }
        ],
        "bonds": [
          {
            "atomIds": [
              0,
              1
            ],
            "bo": "DOUBLE"
          },
          {
            "atomIds": [
              0,
              2
            ],
            "bo": "SINGLE"
          }
        ]
      },
      "vertexId": 1241635,
      "buildingBlockId": 71,
      "buildingBlockType": "FRAGMENT",
      "isRCV": false,
      "properties": {
        "ATTACHMENT_POINTS": "1#bridge:0:SINGLE:1.9789%0.1700%0.0000 2#bridge:0:SINGLE:-0.3006%-1.4852%0.0000,SubBridge:0:SINGLE:-1.8343%0.6268%0.0000 ",
        "OLDVERTEXID": 284255
      },
      "uniquefyingPropertyKeys": [],
      "allowedMutationTypes": [
        "DELETE",
        "EXTEND",
        "CHANGEBRANCH",
        "CHANGELINK",
        "ADDLINK",
        "DELETELINK",
        "DELETECHAIN"
      ],
      "vertexType": "MolecularFragment"
    },
    {
      "lstAPs": [
        {
          "id": 2046084,
          "atomPositionNumber": 0,
          "atomPositionNumberInMol": -1,
          "apClass": {
            "rule": "ATminus",
            "subClass": 0,
            "bndTyp": "ANY"
          },
          "dirVec": {
            "x": 0.0109,
            "y": -0.0071,
            "z": 0.0026
          }
        }
      ],
      "lstSymAPs": [],
      "mol": {
        "atoms": [
          {
            "elSymbol": "ATM",
            "p3d": {
              "x": -0.0096,
              "y": 0.0045,
              "z": -0.0011
            }
          }
        ],
        "bonds": []
      },
      "vertexId": 1241636,
      "buildingBlockId": 79,
      "buildingBlockType": "FRAGMENT",
      "isRCV": true,
      "properties": {
        "ATTACHMENT_POINTS": "1#ATminus:0:ANY:0.0109%-0.0071%0.0026 ",
        "OLDVERTEXID": 1241172
      },
      "uniquefyingPropertyKeys": [],
      "allowedMutationTypes": [
        "DELETE",
        "EXTEND",
        "CHANGEBRANCH",
        "CHANGELINK",
        "ADDLINK",
        "DELETELINK",
        "DELETECHAIN"
      ],
      "vertexType": "MolecularFragment"
    },
    {
      "lstAPs": [
        {
          "id": 2046085,
          "atomPositionNumber": 0,
          "atomPositionNumberInMol": -1,
          "apClass": {
            "rule": "hyd",
            "subClass": 1,
            "bndTyp": "SINGLE"
          },
          "dirVec": {
            "x": 0.4589,
            "y": -1.751,
            "z": 0.3869
          }
        }
      ],
      "lstSymAPs": [],
      "mol": {
        "atoms": [
          {
            "elSymbol": "H",
            "p3d": {
              "x": 0.1925,
              "y": -2.5024,
              "z": 1.1483
            }
          }
        ],
        "bonds": []
      },
      "vertexId": 1241637,
      "buildingBlockId": 0,
      "buildingBlockType": "CAP",
      "isRCV": false,
      "properties": {
        "ATTACHMENT_POINTS": "1#hyd:1:SINGLE:0.4589%-1.7510%0.3869 ",
        "OLDVERTEXID": 1240153
      },
      "uniquefyingPropertyKeys": [],
      "allowedMutationTypes": [
        "DELETE",
        "EXTEND",
        "CHANGEBRANCH",
        "CHANGELINK",
        "ADDLINK",
        "DELETELINK",
        "DELETECHAIN"
      ],
      "vertexType": "MolecularFragment"
    },
    {
      "lstAPs": [
        {
          "id": 2046086,
          "atomPositionNumber": 0,
          "atomPositionNumberInMol": -1,
          "apClass": {
            "rule": "ATminus",
            "subClass": 0,
            "bndTyp": "ANY"
          },
          "dirVec": {
            "x": 0.0109,
            "y": -0.0071,
            "z": 0.0026
          }
        }
      ],
      "lstSymAPs": [],
      "mol": {
        "atoms": [
          {
            "elSymbol": "ATM",
            "p3d": {
              "x": -0.0096,
              "y": 0.0045,
              "z": -0.0011
            }
          }
        ],
        "bonds": []
      },
      "vertexId": 1241638,
      "buildingBlockId": 79,
      "buildingBlockType": "FRAGMENT",
      "isRCV": true,
      "properties": {
        "ATTACHMENT_POINTS": "1#ATminus:0:ANY:0.0109%-0.0071%0.0026 ",
        "OLDVERTEXID": 1240142
      },
      "uniquefyingPropertyKeys": [],
      "allowedMutationTypes": [
        "DELETE",
        "EXTEND",
        "CHANGEBRANCH",
        "CHANGELINK",
        "ADDLINK",
        "DELETELINK",
        "DELETECHAIN"
      ],
      "vertexType": "MolecularFragment"
    },
    {
      "lstAPs": [
        {
          "id": 2046087,
          "atomPositionNumber": 0,
          "atomPositionNumberInMol": -1,
          "apClass": {
            "rule": "hyd",
            "subClass": 1,
            "bndTyp": "SINGLE"
          },
          "dirVec": {
            "x": 0.4589,
            "y": -1.751,
            "z": 0.3869
          }
        }
      ],
      "lstSymAPs": [],
      "mol": {
        "atoms": [
          {
            "elSymbol": "H",
            "p3d": {
              "x": 0.1925,
              "y": -2.5024,
              "z": 1.1483
            }
          }
        ],
        "bonds": []
      },
      "vertexId": 1241639,
      "buildingBlockId": 0,
      "buildingBlockType": "CAP",
      "isRCV": false,
      "properties": {
        "ATTACHMENT_POINTS": "1#hyd:1:SINGLE:0.4589%-1.7510%0.3869 ",
        "OLDVERTEXID": 1241171
      },
      "uniquefyingPropertyKeys": [],
      "allowedMutationTypes": [
        "DELETE",
        "EXTEND",
        "CHANGEBRANCH",
        "CHANGELINK",
        "ADDLINK",
        "DELETELINK",
        "DELETECHAIN"
      ],
      "vertexType": "MolecularFragment"
    }
  ],
  "gEdges": [
    {
      "srcAPID": 2046062,
      "trgAPID": 2046066,
      "bondType": "SINGLE"
    },
    {
      "srcAPID": 2046064,
      "trgAPID": 2046067,
      "bondType": "SINGLE"
    },
    {
      "srcAPID": 2046065,
      "trgAPID": 2046068,
      "bondType": "SINGLE"
    },
    {
      "srcAPID": 2046060,
      "trgAPID": 2046069,
      "bondType": "SINGLE"
    },
    {
      "srcAPID": 2046061,
      "trgAPID": 2046071,
      "bondType": "SINGLE"
    },
    {
      "srcAPID": 2046063,
      "trgAPID": 2046073,
      "bondType": "SINGLE"
    },
    {
      "srcAPID": 2046070,
      "trgAPID": 2046076,
      "bondType": "SINGLE"
    },
    {
      "srcAPID": 2046075,
      "trgAPID": 2046079,
      "bondType": "SINGLE"
    },
    {
      "srcAPID": 2046074,
      "trgAPID": 2046080,
      "bondType": "SINGLE"
    },
    {
      "srcAPID": 2046072,
      "trgAPID": 2046081,
      "bondType": "SINGLE"
    },
    {
      "srcAPID": 2046082,
      "trgAPID": 2046084,
      "bondType": "SINGLE"
    },
    {
      "srcAPID": 2046078,
      "trgAPID": 2046085,
      "bondType": "SINGLE"
    },
    {
      "srcAPID": 2046077,
      "trgAPID": 2046086,
      "bondType": "SINGLE"
    },
    {
      "srcAPID": 2046083,
      "trgAPID": 2046087,
      "bondType": "SINGLE"
    }
  ],
  "gRings": [
    {
      "vertices": [
        1241628,
        1241626,
        1241625,
        1241630,
        1241635,
        1241636
      ],
      "bndTyp": "SINGLE"
    },
    {
      "vertices": [
        1241627,
        1241626,
        1241625,
        1241629,
        1241632,
        1241638
      ],
      "bndTyp": "SINGLE"
    }
  ],
  "symVertices": [
    {
      "symIds": [
        1241627,
        1241628
      ]
    },
    {
      "symIds": [
        1241629,
        1241630
      ]
    },
    {
      "symIds": [
        1241632,
        1241635
      ]
    },
    {
      "symIds": [
        1241633,
        1241634
      ]
    },
    {
      "symIds": [
        1241636,
        1241638
      ]
    },
    {
      "symIds": [
        1241637,
        1241639
      ]
    }
  ]
}

> <SMILES>
[Pt]12(C#O)[P](N(C=3C(=C(C(=C(C3[H])[H])[H])[H])[H])C=4C(=C(C(=C(C4[H])[H])[H])[H])[H])(C(=C([H])S1)[H])C(=C([H])S2)[H]

$$$$
