M30093856
  CDK     05082207243D

 52 54  0  0  0  0  0  0  0  0999 V2000
   -0.9100    0.1208    0.5888 Pt  0  0  0  0  0  0  0  0  0  0  0  0
   -2.6317    0.9881    1.1560 C   0  0  0  0  0  0  0  0  0  0  0  0
   -3.6185    1.4467    1.4962 O   0  0  0  0  0  0  0  0  0  0  0  0
    1.0673   -0.6302   -0.1838 P   0  0  0  0  0  0  0  0  0  0  0  0
    1.8519   -2.1245    0.2923 N   0  0  0  0  0  0  0  0  0  0  0  0
    3.1196   -1.8403    0.8694 C   0  0  0  0  0  0  0  0  0  0  0  0
    3.7445   -2.6602    1.1926 H   0  0  0  0  0  0  0  0  0  0  0  0
    3.4182   -0.5115    0.9462 C   0  0  0  0  0  0  0  0  0  0  0  0
    4.3223   -0.0776    1.3490 H   0  0  0  0  0  0  0  0  0  0  0  0
    2.3990    0.3421    0.4468 N   0  0  0  0  0  0  0  0  0  0  0  0
    1.0481   -0.4914   -2.0449 C   0  0  0  0  0  0  0  0  0  0  0  0
    0.6606    0.4901   -2.3629 H   0  0  0  0  0  0  0  0  0  0  0  0
    2.0438   -0.6295   -2.4780 H   0  0  0  0  0  0  0  0  0  0  0  0
    0.3803   -1.2666   -2.4618 H   0  0  0  0  0  0  0  0  0  0  0  0
    1.4763   -3.0630    0.1678 H   0  0  0  0  0  0  0  0  0  0  0  0
    2.4495    1.3526    0.4724 H   0  0  0  0  0  0  0  0  0  0  0  0
   -1.7247   -2.8350    0.2182 S   0  0  0  0  0  0  0  0  0  0  0  0
   -1.9910   -1.5469    1.1488 O   0  0  0  0  0  0  0  0  0  0  0  0
   -0.4678   -2.4465   -0.4820 O   0  0  0  0  0  0  0  0  0  0  0  0
   -2.8696   -3.1822   -0.5702 O   0  0  0  0  0  0  0  0  0  0  0  0
   -1.4049   -4.0772    1.4144 C   0  0  0  0  0  0  0  0  0  0  0  0
   -0.6221   -5.2096    0.8297 C   0  0  0  0  0  0  0  0  0  0  0  0
    0.6915   -5.4538    1.2574 C   0  0  0  0  0  0  0  0  0  0  0  0
    1.4129   -6.5213    0.7145 C   0  0  0  0  0  0  0  0  0  0  0  0
    0.8312   -7.3456   -0.2525 C   0  0  0  0  0  0  0  0  0  0  0  0
   -0.4791   -7.1011   -0.6787 C   0  0  0  0  0  0  0  0  0  0  0  0
   -1.2078   -6.0384   -0.1413 C   0  0  0  0  0  0  0  0  0  0  0  0
   -0.8899   -3.6459    2.3051 H   0  0  0  0  0  0  0  0  0  0  0  0
   -2.3551   -4.4685    1.8521 H   0  0  0  0  0  0  0  0  0  0  0  0
    1.1503   -4.8216    2.0156 H   0  0  0  0  0  0  0  0  0  0  0  0
    2.4324   -6.7106    1.0491 H   0  0  0  0  0  0  0  0  0  0  0  0
    1.3955   -8.1756   -0.6742 H   0  0  0  0  0  0  0  0  0  0  0  0
   -0.9346   -7.7414   -1.4344 H   0  0  0  0  0  0  0  0  0  0  0  0
   -2.2283   -5.8515   -0.4839 H   0  0  0  0  0  0  0  0  0  0  0  0
   -0.5991    3.0118   -0.5251 S   0  0  0  0  0  0  0  0  0  0  0  0
    0.2467    1.7338    0.0399 O   0  0  0  0  0  0  0  0  0  0  0  0
   -1.9200    2.8080    0.0877 O   0  0  0  0  0  0  0  0  0  0  0  0
   -0.4604    3.0482   -1.9553 O   0  0  0  0  0  0  0  0  0  0  0  0
    0.2488    4.3508    0.2222 C   0  0  0  0  0  0  0  0  0  0  0  0
   -0.3463    5.6672   -0.1761 C   0  0  0  0  0  0  0  0  0  0  0  0
   -0.9186    6.5032    0.7937 C   0  0  0  0  0  0  0  0  0  0  0  0
   -1.4488    7.7418    0.4200 C   0  0  0  0  0  0  0  0  0  0  0  0
   -1.4102    8.1505   -0.9159 C   0  0  0  0  0  0  0  0  0  0  0  0
   -0.8436    7.3137   -1.8837 C   0  0  0  0  0  0  0  0  0  0  0  0
   -0.3117    6.0754   -1.5194 C   0  0  0  0  0  0  0  0  0  0  0  0
    0.2626    4.2414    1.3314 H   0  0  0  0  0  0  0  0  0  0  0  0
    1.3313    4.3432   -0.0458 H   0  0  0  0  0  0  0  0  0  0  0  0
   -0.9606    6.1911    1.8355 H   0  0  0  0  0  0  0  0  0  0  0  0
   -1.8962    8.3876    1.1747 H   0  0  0  0  0  0  0  0  0  0  0  0
   -1.8247    9.1149   -1.2044 H   0  0  0  0  0  0  0  0  0  0  0  0
   -0.8199    7.6257   -2.9277 H   0  0  0  0  0  0  0  0  0  0  0  0
    0.1106    5.4188   -2.2856 H   0  0  0  0  0  0  0  0  0  0  0  0
  2  3  3  0  0  0  0
  1  2  1  0  0  0  0
  5  4  1  0  0  0  0
  6  5  1  0  0  0  0
  7  6  1  0  0  0  0
  8  6  2  0  0  0  0
  8 10  1  0  0  0  0
  9  8  1  0  0  0  0
 10  4  1  0  0  0  0
  1  4  1  0  0  0  0
 11 12  1  0  0  0  0
 11 13  1  0  0  0  0
 11 14  1  0  0  0  0
  4 11  1  0  0  0  0
  5 15  1  0  0  0  0
 10 16  1  0  0  0  0
 17 18  1  0  0  0  0
 19 17  2  0  0  0  0
 20 17  2  0  0  0  0
  1 18  1  0  0  0  0
 21 22  1  0  0  0  0
 22 23  1  0  0  0  0
 23 24  2  0  0  0  0
 24 25  1  0  0  0  0
 25 26  2  0  0  0  0
 26 27  1  0  0  0  0
 22 27  2  0  0  0  0
 21 28  1  0  0  0  0
 21 29  1  0  0  0  0
 23 30  1  0  0  0  0
 24 31  1  0  0  0  0
 25 32  1  0  0  0  0
 26 33  1  0  0  0  0
 17 21  1  0  0  0  0
 27 34  1  0  0  0  0
 35 36  1  0  0  0  0
 37 35  2  0  0  0  0
 38 35  2  0  0  0  0
  1 36  1  0  0  0  0
 39 40  1  0  0  0  0
 40 41  1  0  0  0  0
 41 42  2  0  0  0  0
 42 43  1  0  0  0  0
 43 44  2  0  0  0  0
 44 45  1  0  0  0  0
 40 45  2  0  0  0  0
 39 46  1  0  0  0  0
 39 47  1  0  0  0  0
 41 48  1  0  0  0  0
 42 49  1  0  0  0  0
 43 50  1  0  0  0  0
 44 51  1  0  0  0  0
 35 39  1  0  0  0  0
 45 52  1  0  0  0  0
M  END
> <PM6_ENERGY>
-935.526

> <UID>
TWEDUVZYOVVVIX-RHYFPWARNA-L

> <FITNESS>
1.1401

> <GCODE>
206388

> <GraphENC>
206388 157_1_0,158_1_1,159_79_1,160_79_1,10282_24_1,10718_77_1,10278_77_1,221498_68_1,221608_68_1,11437052_80_1,11437050_80_1, 157_2_158_1_SINGLE_scaff:0_MBisAminoPhosphine:1,158_2_159_0_SINGLE_LCycloBisAminoPhospholeSubN:0_ATplus:0,158_3_160_0_SINGLE_LCycloBisAminoPhospholeSubN:0_ATplus:0,158_0_10282_0_SINGLE_LBisAminoPhosphineSubR:0_SubRS:1,157_1_10718_0_SINGLE_Xlig:0_Xlig:1,157_0_10278_0_SINGLE_Xlig:0_Xlig:1,10718_1_221498_0_SINGLE_bridge:1_bridge:0,10278_1_221608_0_SINGLE_bridge:1_bridge:0,221608_1_11437052_0_SINGLE_bridge:0_ATminus:0,221498_1_11437050_0_SINGLE_bridge:0_ATminus:0, SymmetricSet [symIds=[159, 160]] SymmetricSet [symIds=[10718, 10278]] SymmetricSet [symIds=[221498, 221608]] SymmetricSet [symIds=[11437052, 11437050]] 

> <GraphJson>
{
  "graphId": 206388,
  "gVertices": [
    {
      "lstAPs": [
        {
          "id": 19138582,
          "atomPositionNumber": 0,
          "atomPositionNumberInMol": 0,
          "apClass": {
            "rule": "Xlig",
            "subClass": 0,
            "bndTyp": "SINGLE"
          },
          "dirVec": {
            "x": -2.3339,
            "y": -0.0087,
            "z": 0.8172
          }
        },
        {
          "id": 19138583,
          "atomPositionNumber": 0,
          "atomPositionNumberInMol": 0,
          "apClass": {
            "rule": "Xlig",
            "subClass": 0,
            "bndTyp": "SINGLE"
          },
          "dirVec": {
            "x": 2.336,
            "y": -5.0E-4,
            "z": 0.829
          }
        },
        {
          "id": 19138584,
          "atomPositionNumber": 0,
          "atomPositionNumberInMol": 0,
          "apClass": {
            "rule": "scaff",
            "subClass": 0,
            "bndTyp": "SINGLE"
          },
          "dirVec": {
            "x": -0.0095,
            "y": 0.0046,
            "z": -1.7113
          }
        }
      ],
      "lstSymAPs": [
        {
          "symIds": [
            0,
            1
          ]
        }
      ],
      "mol": {
        "atoms": [
          {
            "elSymbol": "Pt",
            "p3d": {
              "x": -0.0098,
              "y": 0.0049,
              "z": 0.6289
            }
          },
          {
            "elSymbol": "C",
            "p3d": {
              "x": -6.0E-4,
              "y": 0.0016,
              "z": 2.5609
            }
          },
          {
            "elSymbol": "O",
            "p3d": {
              "x": 0.0025,
              "y": -0.0041,
              "z": 3.6974
            }
          },
          {
            "elSymbol": "Du",
            "p3d": {
              "x": -0.007,
              "y": 1.0013,
              "z": 0.6372
            }
          },
          {
            "elSymbol": "Du",
            "p3d": {
              "x": -0.0014,
              "y": 0.9902,
              "z": 2.5698
            }
          }
        ],
        "bonds": [
          {
            "atomIds": [
              1,
              2
            ],
            "bo": "TRIPLE"
          },
          {
            "atomIds": [
              0,
              1
            ],
            "bo": "SINGLE"
          },
          {
            "atomIds": [
              3,
              0
            ],
            "bo": "SINGLE"
          },
          {
            "atomIds": [
              4,
              1
            ],
            "bo": "SINGLE"
          }
        ]
      },
      "vertexId": 157,
      "buildingBlockId": 0,
      "buildingBlockType": "SCAFFOLD",
      "isRCV": false,
      "properties": {
        "ATTACHMENT_POINTS": "1#Xlig:0:SINGLE:-2.3339%-0.0087%0.8172,Xlig:0:SINGLE:2.3360%-0.0005%0.8290,scaff:0:SINGLE:-0.0095%0.0046%-1.7113 "
      },
      "uniquefyingPropertyKeys": [],
      "allowedMutationTypes": [
        "DELETE",
        "EXTEND",
        "CHANGEBRANCH",
        "CHANGELINK",
        "ADDLINK",
        "DELETELINK",
        "DELETECHAIN"
      ],
      "vertexType": "MolecularFragment"
    },
    {
      "lstAPs": [
        {
          "id": 19138585,
          "atomPositionNumber": 0,
          "atomPositionNumberInMol": 5,
          "apClass": {
            "rule": "LBisAminoPhosphineSubR",
            "subClass": 0,
            "bndTyp": "SINGLE"
          },
          "dirVec": {
            "x": -1.792186992952222,
            "y": 0.022200467215305136,
            "z": -2.140294607879978
          }
        },
        {
          "id": 19138586,
          "atomPositionNumber": 0,
          "atomPositionNumberInMol": 5,
          "apClass": {
            "rule": "MBisAminoPhosphine",
            "subClass": 1,
            "bndTyp": "SINGLE"
          },
          "dirVec": {
            "x": -0.009790620829534021,
            "y": 0.00489062082953414,
            "z": 0.5557362175858562
          }
        },
        {
          "id": 19138587,
          "atomPositionNumber": 1,
          "atomPositionNumberInMol": 6,
          "apClass": {
            "rule": "LCycloBisAminoPhospholeSubN",
            "subClass": 0,
            "bndTyp": "SINGLE"
          },
          "dirVec": {
            "x": 1.2949089956167246,
            "y": -2.42225253179424,
            "z": -2.300535997647931
          }
        },
        {
          "id": 19138588,
          "atomPositionNumber": 6,
          "atomPositionNumberInMol": 11,
          "apClass": {
            "rule": "LCycloBisAminoPhospholeSubN",
            "subClass": 0,
            "bndTyp": "SINGLE"
          },
          "dirVec": {
            "x": 0.6027963924718436,
            "y": 2.713740576254344,
            "z": -1.9339348129178737
          }
        }
      ],
      "lstSymAPs": [
        {
          "symIds": [
            2,
            3
          ]
        }
      ],
      "mol": {
        "atoms": [
          {
            "elSymbol": "P",
            "p3d": {
              "x": -0.009509379170465976,
              "y": 0.0046093791704658596,
              "z": -1.6381362175858563
            }
          },
          {
            "elSymbol": "N",
            "p3d": {
              "x": 0.8794215696247446,
              "y": -1.0576812892978638,
              "z": -2.591373603528704
            }
          },
          {
            "elSymbol": "C",
            "p3d": {
              "x": 1.4784130515805665,
              "y": -0.3502497342485035,
              "z": -3.6667175296587655
            }
          },
          {
            "elSymbol": "H",
            "p3d": {
              "x": 2.002763870919993,
              "y": -0.8376805256483705,
              "z": -4.485505293278479
            }
          },
          {
            "elSymbol": "C",
            "p3d": {
              "x": 1.3489654149504855,
              "y": 0.9625869625862175,
              "z": -3.5719563729806016
            }
          },
          {
            "elSymbol": "H",
            "p3d": {
              "x": 1.7691178283110074,
              "y": 1.6534842558611083,
              "z": -4.288163158547981
            }
          },
          {
            "elSymbol": "N",
            "p3d": {
              "x": 0.6093348110301025,
              "y": 1.3523318453165212,
              "z": -2.4364231475178193
            }
          }
        ],
        "bonds": [
          {
            "atomIds": [
              1,
              0
            ],
            "bo": "SINGLE"
          },
          {
            "atomIds": [
              2,
              1
            ],
            "bo": "SINGLE"
          },
          {
            "atomIds": [
              3,
              2
            ],
            "bo": "SINGLE"
          },
          {
            "atomIds": [
              4,
              2
            ],
            "bo": "DOUBLE"
          },
          {
            "atomIds": [
              4,
              6
            ],
            "bo": "SINGLE"
          },
          {
            "atomIds": [
              5,
              4
            ],
            "bo": "SINGLE"
          },
          {
            "atomIds": [
              6,
              0
            ],
            "bo": "SINGLE"
          }
        ]
      },
      "vertexId": 158,
      "buildingBlockId": 0,
      "buildingBlockType": "FRAGMENT",
      "isRCV": false,
      "properties": {
        "ATTACHMENT_POINTS": "1#LBisAminoPhosphineSubR:0:SINGLE:-1.7922%0.0222%-2.1403,MBisAminoPhosphine:1:SINGLE:-0.0098%0.0049%0.5557 2#LCycloBisAminoPhospholeSubN:0:SINGLE:1.2949%-2.4223%-2.3005 7#LCycloBisAminoPhospholeSubN:0:SINGLE:0.6028%2.7137%-1.9339 "
      },
      "uniquefyingPropertyKeys": [],
      "allowedMutationTypes": [
        "DELETE",
        "EXTEND",
        "CHANGEBRANCH",
        "CHANGELINK",
        "ADDLINK",
        "DELETELINK",
        "DELETECHAIN"
      ],
      "vertexType": "MolecularFragment"
    },
    {
      "lstAPs": [
        {
          "id": 19138589,
          "atomPositionNumber": 0,
          "atomPositionNumberInMol": 12,
          "apClass": {
            "rule": "ATplus",
            "subClass": 0,
            "bndTyp": "ANY"
          },
          "dirVec": {
            "x": 1.2949089956167246,
            "y": -2.42225253179424,
            "z": -2.300535997647931
          }
        }
      ],
      "lstSymAPs": [],
      "mol": {
        "atoms": [
          {
            "elSymbol": "ATP",
            "p3d": {
              "x": 1.3009002999609833,
              "y": -2.441929569176779,
              "z": -2.2963421364079015
            }
          }
        ],
        "bonds": []
      },
      "vertexId": 159,
      "buildingBlockId": 78,
      "buildingBlockType": "FRAGMENT",
      "isRCV": true,
      "properties": {
        "ATTACHMENT_POINTS": "1#ATplus:0:ANY:1.2949%-2.4223%-2.3005 "
      },
      "uniquefyingPropertyKeys": [],
      "allowedMutationTypes": [
        "DELETE",
        "EXTEND",
        "CHANGEBRANCH",
        "CHANGELINK",
        "ADDLINK",
        "DELETELINK",
        "DELETECHAIN"
      ],
      "vertexType": "MolecularFragment"
    },
    {
      "lstAPs": [
        {
          "id": 19138590,
          "atomPositionNumber": 0,
          "atomPositionNumberInMol": 13,
          "apClass": {
            "rule": "ATplus",
            "subClass": 0,
            "bndTyp": "ANY"
          },
          "dirVec": {
            "x": 0.6027963924718436,
            "y": 2.713740576254344,
            "z": -1.9339348129178737
          }
        }
      ],
      "lstSymAPs": [],
      "mol": {
        "atoms": [
          {
            "elSymbol": "ATP",
            "p3d": {
              "x": 0.6027018116100019,
              "y": 2.7334339026976644,
              "z": -1.9266661164695846
            }
          }
        ],
        "bonds": []
      },
      "vertexId": 160,
      "buildingBlockId": 78,
      "buildingBlockType": "FRAGMENT",
      "isRCV": true,
      "properties": {
        "ATTACHMENT_POINTS": "1#ATplus:0:ANY:0.6028%2.7137%-1.9339 "
      },
      "uniquefyingPropertyKeys": [],
      "allowedMutationTypes": [
        "DELETE",
        "EXTEND",
        "CHANGEBRANCH",
        "CHANGELINK",
        "ADDLINK",
        "DELETELINK",
        "DELETECHAIN"
      ],
      "vertexType": "MolecularFragment"
    },
    {
      "lstAPs": [
        {
          "id": 19138591,
          "atomPositionNumber": 0,
          "atomPositionNumberInMol": 14,
          "apClass": {
            "rule": "SubRS",
            "subClass": 1,
            "bndTyp": "SINGLE"
          },
          "dirVec": {
            "x": 0.2865,
            "y": 0.3959,
            "z": -0.6387
          }
        }
      ],
      "lstSymAPs": [],
      "mol": {
        "atoms": [
          {
            "elSymbol": "C",
            "p3d": {
              "x": 0.3969,
              "y": -0.0496,
              "z": 0.8235
            }
          },
          {
            "elSymbol": "H",
            "p3d": {
              "x": -0.6146,
              "y": -0.163,
              "z": 1.2402
            }
          },
          {
            "elSymbol": "H",
            "p3d": {
              "x": 0.9335,
              "y": -0.9979,
              "z": 0.8998
            }
          },
          {
            "elSymbol": "H",
            "p3d": {
              "x": 0.9252,
              "y": 0.7237,
              "z": 1.3995
            }
          }
        ],
        "bonds": [
          {
            "atomIds": [
              0,
              1
            ],
            "bo": "SINGLE"
          },
          {
            "atomIds": [
              0,
              2
            ],
            "bo": "SINGLE"
          },
          {
            "atomIds": [
              0,
              3
            ],
            "bo": "SINGLE"
          }
        ]
      },
      "vertexId": 10282,
      "buildingBlockId": 23,
      "buildingBlockType": "FRAGMENT",
      "isRCV": false,
      "properties": {
        "ATTACHMENT_POINTS": "1#SubRS:1:SINGLE:0.2865%0.3959%-0.6387 "
      },
      "uniquefyingPropertyKeys": [],
      "allowedMutationTypes": [
        "DELETE",
        "EXTEND",
        "CHANGEBRANCH",
        "CHANGELINK",
        "ADDLINK",
        "DELETELINK",
        "DELETECHAIN"
      ],
      "vertexType": "MolecularFragment"
    },
    {
      "lstAPs": [
        {
          "id": 19138592,
          "atomPositionNumber": 1,
          "atomPositionNumberInMol": 19,
          "apClass": {
            "rule": "Xlig",
            "subClass": 1,
            "bndTyp": "SINGLE"
          },
          "dirVec": {
            "x": 5.983,
            "y": 5.659,
            "z": 10.7602
          }
        },
        {
          "id": 19138593,
          "atomPositionNumber": 0,
          "atomPositionNumberInMol": 18,
          "apClass": {
            "rule": "bridge",
            "subClass": 1,
            "bndTyp": "SINGLE"
          },
          "dirVec": {
            "x": 3.1219,
            "y": 7.0322,
            "z": 12.57
          }
        }
      ],
      "lstSymAPs": [],
      "mol": {
        "atoms": [
          {
            "elSymbol": "S",
            "p3d": {
              "x": 3.289,
              "y": 7.1626,
              "z": 10.7898
            }
          },
          {
            "elSymbol": "O",
            "p3d": {
              "x": 4.7494,
              "y": 7.4238,
              "z": 10.5812
            }
          },
          {
            "elSymbol": "O",
            "p3d": {
              "x": 2.8666,
              "y": 5.9079,
              "z": 10.2063
            }
          },
          {
            "elSymbol": "O",
            "p3d": {
              "x": 2.5225,
              "y": 8.319,
              "z": 10.3914
            }
          }
        ],
        "bonds": [
          {
            "atomIds": [
              0,
              1
            ],
            "bo": "SINGLE"
          },
          {
            "atomIds": [
              2,
              0
            ],
            "bo": "DOUBLE"
          },
          {
            "atomIds": [
              3,
              0
            ],
            "bo": "DOUBLE"
          }
        ]
      },
      "vertexId": 10718,
      "buildingBlockId": 76,
      "buildingBlockType": "FRAGMENT",
      "isRCV": false,
      "properties": {
        "ATTACHMENT_POINTS": "1#bridge:1:SINGLE:3.1219%7.0322%12.5700 2#Xlig:1:SINGLE:5.9830%5.6590%10.7602 "
      },
      "uniquefyingPropertyKeys": [],
      "allowedMutationTypes": [
        "DELETE",
        "EXTEND",
        "CHANGEBRANCH",
        "CHANGELINK",
        "ADDLINK",
        "DELETELINK",
        "DELETECHAIN"
      ],
      "vertexType": "MolecularFragment"
    },
    {
      "lstAPs": [
        {
          "id": 19138594,
          "atomPositionNumber": 1,
          "atomPositionNumberInMol": 37,
          "apClass": {
            "rule": "Xlig",
            "subClass": 1,
            "bndTyp": "SINGLE"
          },
          "dirVec": {
            "x": 5.983,
            "y": 5.659,
            "z": 10.7602
          }
        },
        {
          "id": 19138595,
          "atomPositionNumber": 0,
          "atomPositionNumberInMol": 36,
          "apClass": {
            "rule": "bridge",
            "subClass": 1,
            "bndTyp": "SINGLE"
          },
          "dirVec": {
            "x": 3.1219,
            "y": 7.0322,
            "z": 12.57
          }
        }
      ],
      "lstSymAPs": [],
      "mol": {
        "atoms": [
          {
            "elSymbol": "S",
            "p3d": {
              "x": 3.289,
              "y": 7.1626,
              "z": 10.7898
            }
          },
          {
            "elSymbol": "O",
            "p3d": {
              "x": 4.7494,
              "y": 7.4238,
              "z": 10.5812
            }
          },
          {
            "elSymbol": "O",
            "p3d": {
              "x": 2.8666,
              "y": 5.9079,
              "z": 10.2063
            }
          },
          {
            "elSymbol": "O",
            "p3d": {
              "x": 2.5225,
              "y": 8.319,
              "z": 10.3914
            }
          }
        ],
        "bonds": [
          {
            "atomIds": [
              0,
              1
            ],
            "bo": "SINGLE"
          },
          {
            "atomIds": [
              2,
              0
            ],
            "bo": "DOUBLE"
          },
          {
            "atomIds": [
              3,
              0
            ],
            "bo": "DOUBLE"
          }
        ]
      },
      "vertexId": 10278,
      "buildingBlockId": 76,
      "buildingBlockType": "FRAGMENT",
      "isRCV": false,
      "properties": {
        "ATTACHMENT_POINTS": "1#bridge:1:SINGLE:3.1219%7.0322%12.5700 2#Xlig:1:SINGLE:5.9830%5.6590%10.7602 "
      },
      "uniquefyingPropertyKeys": [],
      "allowedMutationTypes": [
        "DELETE",
        "EXTEND",
        "CHANGEBRANCH",
        "CHANGELINK",
        "ADDLINK",
        "DELETELINK",
        "DELETECHAIN"
      ],
      "vertexType": "MolecularFragment"
    },
    {
      "lstAPs": [
        {
          "id": 19138596,
          "atomPositionNumber": 0,
          "atomPositionNumberInMol": 22,
          "apClass": {
            "rule": "bridge",
            "subClass": 0,
            "bndTyp": "SINGLE"
          },
          "dirVec": {
            "x": -2.5958,
            "y": -0.6501,
            "z": -0.7558
          }
        },
        {
          "id": 19138597,
          "atomPositionNumber": 6,
          "atomPositionNumberInMol": 28,
          "apClass": {
            "rule": "bridge",
            "subClass": 0,
            "bndTyp": "SINGLE"
          },
          "dirVec": {
            "x": -0.8149,
            "y": 2.0931,
            "z": 0.1475
          }
        }
      ],
      "lstSymAPs": [],
      "mol": {
        "atoms": [
          {
            "elSymbol": "C",
            "p3d": {
              "x": -1.8258,
              "y": -0.5811,
              "z": 0.5645
            }
          },
          {
            "elSymbol": "C",
            "p3d": {
              "x": -0.3615,
              "y": -0.3647,
              "z": 0.2814
            }
          },
          {
            "elSymbol": "C",
            "p3d": {
              "x": 0.4975,
              "y": -1.4461,
              "z": 0.2179
            }
          },
          {
            "elSymbol": "C",
            "p3d": {
              "x": 1.8404,
              "y": -1.2477,
              "z": -0.0418
            }
          },
          {
            "elSymbol": "C",
            "p3d": {
              "x": 2.3248,
              "y": 0.0323,
              "z": -0.2386
            }
          },
          {
            "elSymbol": "C",
            "p3d": {
              "x": 1.4658,
              "y": 1.1133,
              "z": -0.1761
            }
          },
          {
            "elSymbol": "C",
            "p3d": {
              "x": 0.1217,
              "y": 0.9144,
              "z": 0.0794
            }
          },
          {
            "elSymbol": "H",
            "p3d": {
              "x": -2.206,
              "y": 0.246,
              "z": 1.164
            }
          },
          {
            "elSymbol": "H",
            "p3d": {
              "x": -1.956,
              "y": -1.5155,
              "z": 1.1104
            }
          },
          {
            "elSymbol": "H",
            "p3d": {
              "x": 0.1192,
              "y": -2.446,
              "z": 0.3716
            }
          },
          {
            "elSymbol": "H",
            "p3d": {
              "x": 2.5116,
              "y": -2.0924,
              "z": -0.0906
            }
          },
          {
            "elSymbol": "H",
            "p3d": {
              "x": 3.3743,
              "y": 0.1874,
              "z": -0.4409
            }
          },
          {
            "elSymbol": "H",
            "p3d": {
              "x": 1.8441,
              "y": 2.1132,
              "z": -0.3295
            }
          }
        ],
        "bonds": [
          {
            "atomIds": [
              0,
              1
            ],
            "bo": "SINGLE"
          },
          {
            "atomIds": [
              1,
              2
            ],
            "bo": "SINGLE"
          },
          {
            "atomIds": [
              2,
              3
            ],
            "bo": "DOUBLE"
          },
          {
            "atomIds": [
              3,
              4
            ],
            "bo": "SINGLE"
          },
          {
            "atomIds": [
              4,
              5
            ],
            "bo": "DOUBLE"
          },
          {
            "atomIds": [
              5,
              6
            ],
            "bo": "SINGLE"
          },
          {
            "atomIds": [
              1,
              6
            ],
            "bo": "DOUBLE"
          },
          {
            "atomIds": [
              0,
              7
            ],
            "bo": "SINGLE"
          },
          {
            "atomIds": [
              0,
              8
            ],
            "bo": "SINGLE"
          },
          {
            "atomIds": [
              2,
              9
            ],
            "bo": "SINGLE"
          },
          {
            "atomIds": [
              3,
              10
            ],
            "bo": "SINGLE"
          },
          {
            "atomIds": [
              4,
              11
            ],
            "bo": "SINGLE"
          },
          {
            "atomIds": [
              5,
              12
            ],
            "bo": "SINGLE"
          }
        ]
      },
      "vertexId": 221498,
      "buildingBlockId": 67,
      "buildingBlockType": "FRAGMENT",
      "isRCV": false,
      "properties": {
        "ATTACHMENT_POINTS": "1#bridge:0:SINGLE:-2.5958%-0.6501%-0.7558 7#bridge:0:SINGLE:-0.8149%2.0931%0.1475 "
      },
      "uniquefyingPropertyKeys": [],
      "allowedMutationTypes": [
        "DELETE",
        "EXTEND",
        "CHANGEBRANCH",
        "CHANGELINK",
        "ADDLINK",
        "DELETELINK",
        "DELETECHAIN"
      ],
      "vertexType": "MolecularFragment"
    },
    {
      "lstAPs": [
        {
          "id": 19138598,
          "atomPositionNumber": 0,
          "atomPositionNumberInMol": 40,
          "apClass": {
            "rule": "bridge",
            "subClass": 0,
            "bndTyp": "SINGLE"
          },
          "dirVec": {
            "x": -2.5958,
            "y": -0.6501,
            "z": -0.7558
          }
        },
        {
          "id": 19138599,
          "atomPositionNumber": 6,
          "atomPositionNumberInMol": 46,
          "apClass": {
            "rule": "bridge",
            "subClass": 0,
            "bndTyp": "SINGLE"
          },
          "dirVec": {
            "x": -0.8149,
            "y": 2.0931,
            "z": 0.1475
          }
        }
      ],
      "lstSymAPs": [],
      "mol": {
        "atoms": [
          {
            "elSymbol": "C",
            "p3d": {
              "x": -1.8258,
              "y": -0.5811,
              "z": 0.5645
            }
          },
          {
            "elSymbol": "C",
            "p3d": {
              "x": -0.3615,
              "y": -0.3647,
              "z": 0.2814
            }
          },
          {
            "elSymbol": "C",
            "p3d": {
              "x": 0.4975,
              "y": -1.4461,
              "z": 0.2179
            }
          },
          {
            "elSymbol": "C",
            "p3d": {
              "x": 1.8404,
              "y": -1.2477,
              "z": -0.0418
            }
          },
          {
            "elSymbol": "C",
            "p3d": {
              "x": 2.3248,
              "y": 0.0323,
              "z": -0.2386
            }
          },
          {
            "elSymbol": "C",
            "p3d": {
              "x": 1.4658,
              "y": 1.1133,
              "z": -0.1761
            }
          },
          {
            "elSymbol": "C",
            "p3d": {
              "x": 0.1217,
              "y": 0.9144,
              "z": 0.0794
            }
          },
          {
            "elSymbol": "H",
            "p3d": {
              "x": -2.206,
              "y": 0.246,
              "z": 1.164
            }
          },
          {
            "elSymbol": "H",
            "p3d": {
              "x": -1.956,
              "y": -1.5155,
              "z": 1.1104
            }
          },
          {
            "elSymbol": "H",
            "p3d": {
              "x": 0.1192,
              "y": -2.446,
              "z": 0.3716
            }
          },
          {
            "elSymbol": "H",
            "p3d": {
              "x": 2.5116,
              "y": -2.0924,
              "z": -0.0906
            }
          },
          {
            "elSymbol": "H",
            "p3d": {
              "x": 3.3743,
              "y": 0.1874,
              "z": -0.4409
            }
          },
          {
            "elSymbol": "H",
            "p3d": {
              "x": 1.8441,
              "y": 2.1132,
              "z": -0.3295
            }
          }
        ],
        "bonds": [
          {
            "atomIds": [
              0,
              1
            ],
            "bo": "SINGLE"
          },
          {
            "atomIds": [
              1,
              2
            ],
            "bo": "SINGLE"
          },
          {
            "atomIds": [
              2,
              3
            ],
            "bo": "DOUBLE"
          },
          {
            "atomIds": [
              3,
              4
            ],
            "bo": "SINGLE"
          },
          {
            "atomIds": [
              4,
              5
            ],
            "bo": "DOUBLE"
          },
          {
            "atomIds": [
              5,
              6
            ],
            "bo": "SINGLE"
          },
          {
            "atomIds": [
              1,
              6
            ],
            "bo": "DOUBLE"
          },
          {
            "atomIds": [
              0,
              7
            ],
            "bo": "SINGLE"
          },
          {
            "atomIds": [
              0,
              8
            ],
            "bo": "SINGLE"
          },
          {
            "atomIds": [
              2,
              9
            ],
            "bo": "SINGLE"
          },
          {
            "atomIds": [
              3,
              10
            ],
            "bo": "SINGLE"
          },
          {
            "atomIds": [
              4,
              11
            ],
            "bo": "SINGLE"
          },
          {
            "atomIds": [
              5,
              12
            ],
            "bo": "SINGLE"
          }
        ]
      },
      "vertexId": 221608,
      "buildingBlockId": 67,
      "buildingBlockType": "FRAGMENT",
      "isRCV": false,
      "properties": {
        "ATTACHMENT_POINTS": "1#bridge:0:SINGLE:-2.5958%-0.6501%-0.7558 7#bridge:0:SINGLE:-0.8149%2.0931%0.1475 "
      },
      "uniquefyingPropertyKeys": [],
      "allowedMutationTypes": [
        "DELETE",
        "EXTEND",
        "CHANGEBRANCH",
        "CHANGELINK",
        "ADDLINK",
        "DELETELINK",
        "DELETECHAIN"
      ],
      "vertexType": "MolecularFragment"
    },
    {
      "lstAPs": [
        {
          "id": 19138600,
          "atomPositionNumber": 0,
          "atomPositionNumberInMol": 53,
          "apClass": {
            "rule": "ATminus",
            "subClass": 0,
            "bndTyp": "ANY"
          },
          "dirVec": {
            "x": 0.0109,
            "y": -0.0071,
            "z": 0.0026
          }
        }
      ],
      "lstSymAPs": [],
      "mol": {
        "atoms": [
          {
            "elSymbol": "ATM",
            "p3d": {
              "x": -0.0096,
              "y": 0.0045,
              "z": -0.0011
            }
          }
        ],
        "bonds": []
      },
      "vertexId": 11437052,
      "buildingBlockId": 79,
      "buildingBlockType": "FRAGMENT",
      "isRCV": true,
      "properties": {
        "ATTACHMENT_POINTS": "1#ATminus:0:ANY:0.0109%-0.0071%0.0026 "
      },
      "uniquefyingPropertyKeys": [],
      "allowedMutationTypes": [
        "DELETE",
        "EXTEND",
        "CHANGEBRANCH",
        "CHANGELINK",
        "ADDLINK",
        "DELETELINK",
        "DELETECHAIN"
      ],
      "vertexType": "MolecularFragment"
    },
    {
      "lstAPs": [
        {
          "id": 19138601,
          "atomPositionNumber": 0,
          "atomPositionNumberInMol": 35,
          "apClass": {
            "rule": "ATminus",
            "subClass": 0,
            "bndTyp": "ANY"
          },
          "dirVec": {
            "x": 0.0109,
            "y": -0.0071,
            "z": 0.0026
          }
        }
      ],
      "lstSymAPs": [],
      "mol": {
        "atoms": [
          {
            "elSymbol": "ATM",
            "p3d": {
              "x": -0.0096,
              "y": 0.0045,
              "z": -0.0011
            }
          }
        ],
        "bonds": []
      },
      "vertexId": 11437050,
      "buildingBlockId": 79,
      "buildingBlockType": "FRAGMENT",
      "isRCV": true,
      "properties": {
        "ATTACHMENT_POINTS": "1#ATminus:0:ANY:0.0109%-0.0071%0.0026 "
      },
      "uniquefyingPropertyKeys": [],
      "allowedMutationTypes": [
        "DELETE",
        "EXTEND",
        "CHANGEBRANCH",
        "CHANGELINK",
        "ADDLINK",
        "DELETELINK",
        "DELETECHAIN"
      ],
      "vertexType": "MolecularFragment"
    }
  ],
  "gEdges": [
    {
      "srcAPID": 19138584,
      "trgAPID": 19138586,
      "bondType": "SINGLE"
    },
    {
      "srcAPID": 19138587,
      "trgAPID": 19138589,
      "bondType": "SINGLE"
    },
    {
      "srcAPID": 19138588,
      "trgAPID": 19138590,
      "bondType": "SINGLE"
    },
    {
      "srcAPID": 19138585,
      "trgAPID": 19138591,
      "bondType": "SINGLE"
    },
    {
      "srcAPID": 19138583,
      "trgAPID": 19138592,
      "bondType": "SINGLE"
    },
    {
      "srcAPID": 19138582,
      "trgAPID": 19138594,
      "bondType": "SINGLE"
    },
    {
      "srcAPID": 19138593,
      "trgAPID": 19138596,
      "bondType": "SINGLE"
    },
    {
      "srcAPID": 19138595,
      "trgAPID": 19138598,
      "bondType": "SINGLE"
    },
    {
      "srcAPID": 19138599,
      "trgAPID": 19138600,
      "bondType": "SINGLE"
    },
    {
      "srcAPID": 19138597,
      "trgAPID": 19138601,
      "bondType": "SINGLE"
    }
  ],
  "gRings": [],
  "symVertices": [
    {
      "symIds": [
        159,
        160
      ]
    },
    {
      "symIds": [
        10718,
        10278
      ]
    },
    {
      "symIds": [
        221498,
        221608
      ]
    },
    {
      "symIds": [
        11437052,
        11437050
      ]
    }
  ]
}

> <SMILES>
[Pt](C#O)([P]1(N(C([H])=C(N1[H])[H])[H])C([H])([H])[H])(OS(=O)(=O)C(C=2C(=C(C(=C(C2[H])[H])[H])[H])[H])([H])[H])OS(=O)(=O)C(C=3C(=C(C(=C(C3[H])[H])[H])[H])[H])([H])[H]

$$$$
