M30094245
  CDK     05082207283D

 47 50  0  0  0  0  0  0  0  0999 V2000
   -2.3759   -0.1480    0.4013 Pt  0  0  0  0  0  0  0  0  0  0  0  0
   -4.3543    0.0183    0.3479 C   0  0  0  0  0  0  0  0  0  0  0  0
   -5.4878    0.1309    0.3518 O   0  0  0  0  0  0  0  0  0  0  0  0
   -0.1629   -0.1203    0.6428 P   0  0  0  0  0  0  0  0  0  0  0  0
    0.4970   -1.7526    0.8659 N   0  0  1  0  0  0  0  0  0  0  0  0
    1.4416   -1.6683    1.9208 C   0  0  0  0  0  0  0  0  0  0  0  0
    2.1195   -2.4975    2.1038 H   0  0  0  0  0  0  0  0  0  0  0  0
    1.3788   -0.5191    2.6469 C   0  0  0  0  0  0  0  0  0  0  0  0
    2.0094   -0.2612    3.4885 H   0  0  0  0  0  0  0  0  0  0  0  0
    0.4310    0.5036    2.2136 N   0  0  2  0  0  0  0  0  0  0  0  0
    0.7815    0.8119   -0.6946 C   0  0  0  0  0  0  0  0  0  0  0  0
    3.0010    1.4421   -1.6832 C   0  0  0  0  0  0  0  0  0  0  0  0
    0.9693    1.1622   -3.1731 C   0  0  0  0  0  0  0  0  0  0  0  0
    2.4952    1.0314   -3.0731 C   0  0  0  0  0  0  0  0  0  0  0  0
    0.2646    0.3626   -2.0659 C   0  0  0  0  0  0  0  0  0  0  0  0
    2.2982    0.6473   -0.5683 C   0  0  0  0  0  0  0  0  0  0  0  0
    2.8331    2.5263   -1.5312 H   0  0  0  0  0  0  0  0  0  0  0  0
    0.6759    2.2285   -3.1076 H   0  0  0  0  0  0  0  0  0  0  0  0
    2.7983   -0.0101   -3.2910 H   0  0  0  0  0  0  0  0  0  0  0  0
    0.4515   -0.7241   -2.2395 H   0  0  0  0  0  0  0  0  0  0  0  0
    2.5978   -0.4174   -0.6423 H   0  0  0  0  0  0  0  0  0  0  0  0
    0.5126    1.9011   -0.5526 H   0  0  0  0  0  0  0  0  0  0  0  0
    4.0944    1.2904   -1.6181 H   0  0  0  0  0  0  0  0  0  0  0  0
    0.6199    0.8144   -4.1638 H   0  0  0  0  0  0  0  0  0  0  0  0
    2.9770    1.6575   -3.8479 H   0  0  0  0  0  0  0  0  0  0  0  0
   -0.8413    0.4995   -2.1588 H   0  0  0  0  0  0  0  0  0  0  0  0
    2.6599    1.0072    0.4171 H   0  0  0  0  0  0  0  0  0  0  0  0
   -2.3238    2.5384    1.9370 S   0  0  0  0  0  0  0  0  0  0  0  0
   -1.7018    1.7940    0.6289 O   0  0  0  0  0  0  0  0  0  0  0  0
   -3.4685    1.6629    2.2319 O   0  0  0  0  0  0  0  0  0  0  0  0
   -2.5134    3.9420    1.7178 O   0  0  0  0  0  0  0  0  0  0  0  0
   -0.6229    0.8238    3.2411 C   0  0  0  0  0  0  0  0  0  0  0  0
   -1.0457    2.2909    3.1209 C   0  0  0  0  0  0  0  0  0  0  0  0
   -0.1790    0.6652    4.2543 H   0  0  0  0  0  0  0  0  0  0  0  0
   -1.5154    0.1484    3.1993 H   0  0  0  0  0  0  0  0  0  0  0  0
   -1.3464    2.6689    4.1210 H   0  0  0  0  0  0  0  0  0  0  0  0
   -0.1516    2.9124    2.8714 H   0  0  0  0  0  0  0  0  0  0  0  0
   -2.1722   -2.6506   -1.3104 S   0  0  0  0  0  0  0  0  0  0  0  0
   -2.6606   -2.1715    0.1613 O   0  0  0  0  0  0  0  0  0  0  0  0
   -2.3367   -1.4437   -2.1221 O   0  0  0  0  0  0  0  0  0  0  0  0
   -2.8055   -3.8901   -1.6576 O   0  0  0  0  0  0  0  0  0  0  0  0
    0.1392   -3.0465    0.2252 C   0  0  0  0  0  0  0  0  0  0  0  0
   -0.4188   -2.9230   -1.1844 C   0  0  0  0  0  0  0  0  0  0  0  0
   -0.5985   -3.5734    0.8873 H   0  0  0  0  0  0  0  0  0  0  0  0
    1.0626   -3.6760    0.1998 H   0  0  0  0  0  0  0  0  0  0  0  0
    0.1342   -2.1359   -1.7694 H   0  0  0  0  0  0  0  0  0  0  0  0
   -0.1605   -3.8529   -1.7424 H   0  0  0  0  0  0  0  0  0  0  0  0
  2  3  3  0  0  0  0
  1  2  1  0  0  0  0
  5  4  1  0  0  0  0
  6  5  1  0  0  0  0
  7  6  1  0  0  0  0
  8  6  2  0  0  0  0
  8 10  1  0  0  0  0
  9  8  1  0  0  0  0
 10  4  1  0  0  0  0
  1  4  1  0  0  0  0
 11 22  1  0  0  0  0
 11 15  1  0  0  0  0
 11 16  1  0  0  0  0
 12 17  1  0  0  0  0
 12 23  1  0  0  0  0
 12 14  1  0  0  0  0
 12 16  1  0  0  0  0
 13 18  1  0  0  0  0
 13 24  1  0  0  0  0
 13 15  1  0  0  0  0
 13 14  1  0  0  0  0
 14 19  1  0  0  0  0
 14 25  1  0  0  0  0
 15 20  1  0  0  0  0
 15 26  1  0  0  0  0
 16 21  1  0  0  0  0
 16 27  1  0  0  0  0
  4 11  1  0  0  0  0
 28 29  1  0  0  0  0
 30 28  2  0  0  0  0
 31 28  2  0  0  0  0
  1 29  1  0  0  0  0
 32 33  1  0  0  0  0
 32 34  1  0  0  0  0
 32 35  1  0  0  0  0
 33 36  1  0  0  0  0
 33 37  1  0  0  0  0
 28 33  1  0  0  0  0
 38 39  1  0  0  0  0
 40 38  2  0  0  0  0
 41 38  2  0  0  0  0
  1 39  1  0  0  0  0
 42 43  1  0  0  0  0
 42 44  1  0  0  0  0
 42 45  1  0  0  0  0
 43 46  1  0  0  0  0
 43 47  1  0  0  0  0
 38 43  1  0  0  0  0
 10 32  1  0  0  0  0
  5 42  1  0  0  0  0
M  END
> <PM6_ENERGY>
-1102.197

> <UID>
OLINLFSYYWYDIC-PBTXUQBINA-L

> <FITNESS>
1.13909

> <GCODE>
207154

> <GraphENC>
207154 11479013_1_0,11479014_1_1,11479015_79_1,11479016_79_1,11479017_28_1,11479018_77_1,11479019_77_1,11479020_66_1,11479021_66_1,11479022_80_1,11479023_80_1, 11479013_2_11479014_1_SINGLE_scaff:0_MBisAminoPhosphine:1,11479014_2_11479015_0_SINGLE_LCycloBisAminoPhospholeSubN:0_ATplus:0,11479014_3_11479016_0_SINGLE_LCycloBisAminoPhospholeSubN:0_ATplus:0,11479014_0_11479017_0_SINGLE_LBisAminoPhosphineSubR:0_SubRM:1,11479013_0_11479018_0_SINGLE_Xlig:0_Xlig:1,11479013_1_11479019_0_SINGLE_Xlig:0_Xlig:1,11479019_1_11479020_0_SINGLE_bridge:1_bridge:0,11479018_1_11479021_0_SINGLE_bridge:1_bridge:0,11479020_1_11479022_0_SINGLE_bridge:0_ATminus:0,11479021_1_11479023_0_SINGLE_bridge:0_ATminus:0, DENOPTIMRing [vertices=[11479015_79_1, 11479014_1_1, 11479013_1_0, 11479019_77_1, 11479020_66_1, 11479022_80_1]] DENOPTIMRing [vertices=[11479016_79_1, 11479014_1_1, 11479013_1_0, 11479018_77_1, 11479021_66_1, 11479023_80_1]] SymmetricSet [symIds=[11479015, 11479016]] SymmetricSet [symIds=[11479018, 11479019]] SymmetricSet [symIds=[11479020, 11479021]] SymmetricSet [symIds=[11479022, 11479023]] 

> <GraphJson>
{
  "graphId": 207154,
  "gVertices": [
    {
      "lstAPs": [
        {
          "id": 19207562,
          "atomPositionNumber": 0,
          "atomPositionNumberInMol": -1,
          "apClass": {
            "rule": "Xlig",
            "subClass": 0,
            "bndTyp": "SINGLE"
          },
          "dirVec": {
            "x": -2.3339,
            "y": -0.0087,
            "z": 0.8172
          }
        },
        {
          "id": 19207563,
          "atomPositionNumber": 0,
          "atomPositionNumberInMol": -1,
          "apClass": {
            "rule": "Xlig",
            "subClass": 0,
            "bndTyp": "SINGLE"
          },
          "dirVec": {
            "x": 2.336,
            "y": -5.0E-4,
            "z": 0.829
          }
        },
        {
          "id": 19207564,
          "atomPositionNumber": 0,
          "atomPositionNumberInMol": -1,
          "apClass": {
            "rule": "scaff",
            "subClass": 0,
            "bndTyp": "SINGLE"
          },
          "dirVec": {
            "x": -0.0095,
            "y": 0.0046,
            "z": -1.7113
          }
        }
      ],
      "lstSymAPs": [
        {
          "symIds": [
            0,
            1
          ]
        }
      ],
      "mol": {
        "atoms": [
          {
            "elSymbol": "Pt",
            "p3d": {
              "x": -0.0098,
              "y": 0.0049,
              "z": 0.6289
            }
          },
          {
            "elSymbol": "C",
            "p3d": {
              "x": -6.0E-4,
              "y": 0.0016,
              "z": 2.5609
            }
          },
          {
            "elSymbol": "O",
            "p3d": {
              "x": 0.0025,
              "y": -0.0041,
              "z": 3.6974
            }
          },
          {
            "elSymbol": "Du",
            "p3d": {
              "x": -0.007,
              "y": 1.0013,
              "z": 0.6372
            }
          },
          {
            "elSymbol": "Du",
            "p3d": {
              "x": -0.0014,
              "y": 0.9902,
              "z": 2.5698
            }
          }
        ],
        "bonds": [
          {
            "atomIds": [
              1,
              2
            ],
            "bo": "TRIPLE"
          },
          {
            "atomIds": [
              0,
              1
            ],
            "bo": "SINGLE"
          },
          {
            "atomIds": [
              3,
              0
            ],
            "bo": "SINGLE"
          },
          {
            "atomIds": [
              4,
              1
            ],
            "bo": "SINGLE"
          }
        ]
      },
      "vertexId": 11479013,
      "buildingBlockId": 0,
      "buildingBlockType": "SCAFFOLD",
      "isRCV": false,
      "properties": {
        "ATTACHMENT_POINTS": "1#Xlig:0:SINGLE:-2.3339%-0.0087%0.8172,Xlig:0:SINGLE:2.3360%-0.0005%0.8290,scaff:0:SINGLE:-0.0095%0.0046%-1.7113 ",
        "OLDVERTEXID": 157
      },
      "uniquefyingPropertyKeys": [],
      "allowedMutationTypes": [
        "DELETE",
        "EXTEND",
        "CHANGEBRANCH",
        "CHANGELINK",
        "ADDLINK",
        "DELETELINK",
        "DELETECHAIN"
      ],
      "vertexType": "MolecularFragment"
    },
    {
      "lstAPs": [
        {
          "id": 19207565,
          "atomPositionNumber": 0,
          "atomPositionNumberInMol": -1,
          "apClass": {
            "rule": "LBisAminoPhosphineSubR",
            "subClass": 0,
            "bndTyp": "SINGLE"
          },
          "dirVec": {
            "x": -1.792186992952222,
            "y": 0.022200467215305136,
            "z": -2.140294607879978
          }
        },
        {
          "id": 19207566,
          "atomPositionNumber": 0,
          "atomPositionNumberInMol": -1,
          "apClass": {
            "rule": "MBisAminoPhosphine",
            "subClass": 1,
            "bndTyp": "SINGLE"
          },
          "dirVec": {
            "x": -0.009790620829534021,
            "y": 0.00489062082953414,
            "z": 0.5557362175858562
          }
        },
        {
          "id": 19207567,
          "atomPositionNumber": 1,
          "atomPositionNumberInMol": -1,
          "apClass": {
            "rule": "LCycloBisAminoPhospholeSubN",
            "subClass": 0,
            "bndTyp": "SINGLE"
          },
          "dirVec": {
            "x": 1.2949089956167246,
            "y": -2.42225253179424,
            "z": -2.300535997647931
          }
        },
        {
          "id": 19207568,
          "atomPositionNumber": 6,
          "atomPositionNumberInMol": -1,
          "apClass": {
            "rule": "LCycloBisAminoPhospholeSubN",
            "subClass": 0,
            "bndTyp": "SINGLE"
          },
          "dirVec": {
            "x": 0.6027963924718436,
            "y": 2.713740576254344,
            "z": -1.9339348129178737
          }
        }
      ],
      "lstSymAPs": [
        {
          "symIds": [
            2,
            3
          ]
        }
      ],
      "mol": {
        "atoms": [
          {
            "elSymbol": "P",
            "p3d": {
              "x": -0.009509379170465976,
              "y": 0.0046093791704658596,
              "z": -1.6381362175858563
            }
          },
          {
            "elSymbol": "N",
            "p3d": {
              "x": 0.8794215696247446,
              "y": -1.0576812892978638,
              "z": -2.591373603528704
            }
          },
          {
            "elSymbol": "C",
            "p3d": {
              "x": 1.4784130515805665,
              "y": -0.3502497342485035,
              "z": -3.6667175296587655
            }
          },
          {
            "elSymbol": "H",
            "p3d": {
              "x": 2.002763870919993,
              "y": -0.8376805256483705,
              "z": -4.485505293278479
            }
          },
          {
            "elSymbol": "C",
            "p3d": {
              "x": 1.3489654149504855,
              "y": 0.9625869625862175,
              "z": -3.5719563729806016
            }
          },
          {
            "elSymbol": "H",
            "p3d": {
              "x": 1.7691178283110074,
              "y": 1.6534842558611083,
              "z": -4.288163158547981
            }
          },
          {
            "elSymbol": "N",
            "p3d": {
              "x": 0.6093348110301025,
              "y": 1.3523318453165212,
              "z": -2.4364231475178193
            }
          }
        ],
        "bonds": [
          {
            "atomIds": [
              1,
              0
            ],
            "bo": "SINGLE"
          },
          {
            "atomIds": [
              2,
              1
            ],
            "bo": "SINGLE"
          },
          {
            "atomIds": [
              3,
              2
            ],
            "bo": "SINGLE"
          },
          {
            "atomIds": [
              4,
              2
            ],
            "bo": "DOUBLE"
          },
          {
            "atomIds": [
              4,
              6
            ],
            "bo": "SINGLE"
          },
          {
            "atomIds": [
              5,
              4
            ],
            "bo": "SINGLE"
          },
          {
            "atomIds": [
              6,
              0
            ],
            "bo": "SINGLE"
          }
        ]
      },
      "vertexId": 11479014,
      "buildingBlockId": 0,
      "buildingBlockType": "FRAGMENT",
      "isRCV": false,
      "properties": {
        "ATTACHMENT_POINTS": "1#LBisAminoPhosphineSubR:0:SINGLE:-1.7922%0.0222%-2.1403,MBisAminoPhosphine:1:SINGLE:-0.0098%0.0049%0.5557 2#LCycloBisAminoPhospholeSubN:0:SINGLE:1.2949%-2.4223%-2.3005 7#LCycloBisAminoPhospholeSubN:0:SINGLE:0.6028%2.7137%-1.9339 ",
        "OLDVERTEXID": 158
      },
      "uniquefyingPropertyKeys": [],
      "allowedMutationTypes": [
        "DELETE",
        "EXTEND",
        "CHANGEBRANCH",
        "CHANGELINK",
        "ADDLINK",
        "DELETELINK",
        "DELETECHAIN"
      ],
      "vertexType": "MolecularFragment"
    },
    {
      "lstAPs": [
        {
          "id": 19207569,
          "atomPositionNumber": 0,
          "atomPositionNumberInMol": -1,
          "apClass": {
            "rule": "ATplus",
            "subClass": 0,
            "bndTyp": "ANY"
          },
          "dirVec": {
            "x": 1.2949089956167246,
            "y": -2.42225253179424,
            "z": -2.300535997647931
          }
        }
      ],
      "lstSymAPs": [],
      "mol": {
        "atoms": [
          {
            "elSymbol": "ATP",
            "p3d": {
              "x": 1.3009002999609833,
              "y": -2.441929569176779,
              "z": -2.2963421364079015
            }
          }
        ],
        "bonds": []
      },
      "vertexId": 11479015,
      "buildingBlockId": 78,
      "buildingBlockType": "FRAGMENT",
      "isRCV": true,
      "properties": {
        "ATTACHMENT_POINTS": "1#ATplus:0:ANY:1.2949%-2.4223%-2.3005 ",
        "OLDVERTEXID": 159
      },
      "uniquefyingPropertyKeys": [],
      "allowedMutationTypes": [
        "DELETE",
        "EXTEND",
        "CHANGEBRANCH",
        "CHANGELINK",
        "ADDLINK",
        "DELETELINK",
        "DELETECHAIN"
      ],
      "vertexType": "MolecularFragment"
    },
    {
      "lstAPs": [
        {
          "id": 19207570,
          "atomPositionNumber": 0,
          "atomPositionNumberInMol": -1,
          "apClass": {
            "rule": "ATplus",
            "subClass": 0,
            "bndTyp": "ANY"
          },
          "dirVec": {
            "x": 0.6027963924718436,
            "y": 2.713740576254344,
            "z": -1.9339348129178737
          }
        }
      ],
      "lstSymAPs": [],
      "mol": {
        "atoms": [
          {
            "elSymbol": "ATP",
            "p3d": {
              "x": 0.6027018116100019,
              "y": 2.7334339026976644,
              "z": -1.9266661164695846
            }
          }
        ],
        "bonds": []
      },
      "vertexId": 11479016,
      "buildingBlockId": 78,
      "buildingBlockType": "FRAGMENT",
      "isRCV": true,
      "properties": {
        "ATTACHMENT_POINTS": "1#ATplus:0:ANY:0.6028%2.7137%-1.9339 ",
        "OLDVERTEXID": 160
      },
      "uniquefyingPropertyKeys": [],
      "allowedMutationTypes": [
        "DELETE",
        "EXTEND",
        "CHANGEBRANCH",
        "CHANGELINK",
        "ADDLINK",
        "DELETELINK",
        "DELETECHAIN"
      ],
      "vertexType": "MolecularFragment"
    },
    {
      "lstAPs": [
        {
          "id": 19207571,
          "atomPositionNumber": 0,
          "atomPositionNumberInMol": -1,
          "apClass": {
            "rule": "SubRM",
            "subClass": 1,
            "bndTyp": "SINGLE"
          },
          "dirVec": {
            "x": 0.2917,
            "y": 0.3929,
            "z": -0.6365
          }
        }
      ],
      "lstSymAPs": [],
      "mol": {
        "atoms": [
          {
            "elSymbol": "C",
            "p3d": {
              "x": 1.7002,
              "y": 0.56,
              "z": -1.2045
            }
          },
          {
            "elSymbol": "C",
            "p3d": {
              "x": 3.564,
              "y": -0.7339,
              "z": -2.2652
            }
          },
          {
            "elSymbol": "C",
            "p3d": {
              "x": 2.9237,
              "y": 1.5034,
              "z": -3.1926
            }
          },
          {
            "elSymbol": "C",
            "p3d": {
              "x": 3.4145,
              "y": 0.0994,
              "z": -3.5498
            }
          },
          {
            "elSymbol": "C",
            "p3d": {
              "x": 1.5576,
              "y": 1.3879,
              "z": -2.5024
            }
          },
          {
            "elSymbol": "C",
            "p3d": {
              "x": 2.203,
              "y": -0.843,
              "z": -1.5702
            }
          },
          {
            "elSymbol": "H",
            "p3d": {
              "x": 4.3384,
              "y": -0.3241,
              "z": -1.6106
            }
          },
          {
            "elSymbol": "H",
            "p3d": {
              "x": 3.6361,
              "y": 2.0524,
              "z": -2.5991
            }
          },
          {
            "elSymbol": "H",
            "p3d": {
              "x": 2.7828,
              "y": -0.3911,
              "z": -4.2916
            }
          },
          {
            "elSymbol": "H",
            "p3d": {
              "x": 0.7737,
              "y": 0.9833,
              "z": -3.15
            }
          },
          {
            "elSymbol": "H",
            "p3d": {
              "x": 1.4815,
              "y": -1.3988,
              "z": -2.1783
            }
          },
          {
            "elSymbol": "H",
            "p3d": {
              "x": 2.3445,
              "y": 1.0609,
              "z": -0.4835
            }
          },
          {
            "elSymbol": "H",
            "p3d": {
              "x": 3.8429,
              "y": -1.7623,
              "z": -2.577
            }
          },
          {
            "elSymbol": "H",
            "p3d": {
              "x": 2.7428,
              "y": 2.0124,
              "z": -4.146
            }
          },
          {
            "elSymbol": "H",
            "p3d": {
              "x": 4.4291,
              "y": 0.2183,
              "z": -3.9628
            }
          },
          {
            "elSymbol": "H",
            "p3d": {
              "x": 1.2819,
              "y": 2.4034,
              "z": -2.1821
            }
          },
          {
            "elSymbol": "H",
            "p3d": {
              "x": 2.3734,
              "y": -1.3662,
              "z": -0.6149
            }
          }
        ],
        "bonds": [
          {
            "atomIds": [
              0,
              11
            ],
            "bo": "SINGLE"
          },
          {
            "atomIds": [
              0,
              4
            ],
            "bo": "SINGLE"
          },
          {
            "atomIds": [
              0,
              5
            ],
            "bo": "SINGLE"
          },
          {
            "atomIds": [
              1,
              6
            ],
            "bo": "SINGLE"
          },
          {
            "atomIds": [
              1,
              12
            ],
            "bo": "SINGLE"
          },
          {
            "atomIds": [
              1,
              3
            ],
            "bo": "SINGLE"
          },
          {
            "atomIds": [
              1,
              5
            ],
            "bo": "SINGLE"
          },
          {
            "atomIds": [
              2,
              7
            ],
            "bo": "SINGLE"
          },
          {
            "atomIds": [
              2,
              13
            ],
            "bo": "SINGLE"
          },
          {
            "atomIds": [
              2,
              4
            ],
            "bo": "SINGLE"
          },
          {
            "atomIds": [
              2,
              3
            ],
            "bo": "SINGLE"
          },
          {
            "atomIds": [
              3,
              8
            ],
            "bo": "SINGLE"
          },
          {
            "atomIds": [
              3,
              14
            ],
            "bo": "SINGLE"
          },
          {
            "atomIds": [
              4,
              9
            ],
            "bo": "SINGLE"
          },
          {
            "atomIds": [
              4,
              15
            ],
            "bo": "SINGLE"
          },
          {
            "atomIds": [
              5,
              10
            ],
            "bo": "SINGLE"
          },
          {
            "atomIds": [
              5,
              16
            ],
            "bo": "SINGLE"
          }
        ]
      },
      "vertexId": 11479017,
      "buildingBlockId": 27,
      "buildingBlockType": "FRAGMENT",
      "isRCV": false,
      "properties": {
        "ATTACHMENT_POINTS": "1#SubRM:1:SINGLE:0.2917%0.3929%-0.6365 ",
        "OLDVERTEXID": 10285
      },
      "uniquefyingPropertyKeys": [],
      "allowedMutationTypes": [
        "DELETE",
        "EXTEND",
        "CHANGEBRANCH",
        "CHANGELINK",
        "ADDLINK",
        "DELETELINK",
        "DELETECHAIN"
      ],
      "vertexType": "MolecularFragment"
    },
    {
      "lstAPs": [
        {
          "id": 19207572,
          "atomPositionNumber": 1,
          "atomPositionNumberInMol": -1,
          "apClass": {
            "rule": "Xlig",
            "subClass": 1,
            "bndTyp": "SINGLE"
          },
          "dirVec": {
            "x": 5.983,
            "y": 5.659,
            "z": 10.7602
          }
        },
        {
          "id": 19207573,
          "atomPositionNumber": 0,
          "atomPositionNumberInMol": -1,
          "apClass": {
            "rule": "bridge",
            "subClass": 1,
            "bndTyp": "SINGLE"
          },
          "dirVec": {
            "x": 3.1219,
            "y": 7.0322,
            "z": 12.57
          }
        }
      ],
      "lstSymAPs": [],
      "mol": {
        "atoms": [
          {
            "elSymbol": "S",
            "p3d": {
              "x": 3.289,
              "y": 7.1626,
              "z": 10.7898
            }
          },
          {
            "elSymbol": "O",
            "p3d": {
              "x": 4.7494,
              "y": 7.4238,
              "z": 10.5812
            }
          },
          {
            "elSymbol": "O",
            "p3d": {
              "x": 2.8666,
              "y": 5.9079,
              "z": 10.2063
            }
          },
          {
            "elSymbol": "O",
            "p3d": {
              "x": 2.5225,
              "y": 8.319,
              "z": 10.3914
            }
          }
        ],
        "bonds": [
          {
            "atomIds": [
              0,
              1
            ],
            "bo": "SINGLE"
          },
          {
            "atomIds": [
              2,
              0
            ],
            "bo": "DOUBLE"
          },
          {
            "atomIds": [
              3,
              0
            ],
            "bo": "DOUBLE"
          }
        ]
      },
      "vertexId": 11479018,
      "buildingBlockId": 76,
      "buildingBlockType": "FRAGMENT",
      "isRCV": false,
      "properties": {
        "ATTACHMENT_POINTS": "1#bridge:1:SINGLE:3.1219%7.0322%12.5700 2#Xlig:1:SINGLE:5.9830%5.6590%10.7602 ",
        "OLDVERTEXID": 10278
      },
      "uniquefyingPropertyKeys": [],
      "allowedMutationTypes": [
        "DELETE",
        "EXTEND",
        "CHANGEBRANCH",
        "CHANGELINK",
        "ADDLINK",
        "DELETELINK",
        "DELETECHAIN"
      ],
      "vertexType": "MolecularFragment"
    },
    {
      "lstAPs": [
        {
          "id": 19207574,
          "atomPositionNumber": 1,
          "atomPositionNumberInMol": -1,
          "apClass": {
            "rule": "Xlig",
            "subClass": 1,
            "bndTyp": "SINGLE"
          },
          "dirVec": {
            "x": 5.983,
            "y": 5.659,
            "z": 10.7602
          }
        },
        {
          "id": 19207575,
          "atomPositionNumber": 0,
          "atomPositionNumberInMol": -1,
          "apClass": {
            "rule": "bridge",
            "subClass": 1,
            "bndTyp": "SINGLE"
          },
          "dirVec": {
            "x": 3.1219,
            "y": 7.0322,
            "z": 12.57
          }
        }
      ],
      "lstSymAPs": [],
      "mol": {
        "atoms": [
          {
            "elSymbol": "S",
            "p3d": {
              "x": 3.289,
              "y": 7.1626,
              "z": 10.7898
            }
          },
          {
            "elSymbol": "O",
            "p3d": {
              "x": 4.7494,
              "y": 7.4238,
              "z": 10.5812
            }
          },
          {
            "elSymbol": "O",
            "p3d": {
              "x": 2.8666,
              "y": 5.9079,
              "z": 10.2063
            }
          },
          {
            "elSymbol": "O",
            "p3d": {
              "x": 2.5225,
              "y": 8.319,
              "z": 10.3914
            }
          }
        ],
        "bonds": [
          {
            "atomIds": [
              0,
              1
            ],
            "bo": "SINGLE"
          },
          {
            "atomIds": [
              2,
              0
            ],
            "bo": "DOUBLE"
          },
          {
            "atomIds": [
              3,
              0
            ],
            "bo": "DOUBLE"
          }
        ]
      },
      "vertexId": 11479019,
      "buildingBlockId": 76,
      "buildingBlockType": "FRAGMENT",
      "isRCV": false,
      "properties": {
        "ATTACHMENT_POINTS": "1#bridge:1:SINGLE:3.1219%7.0322%12.5700 2#Xlig:1:SINGLE:5.9830%5.6590%10.7602 ",
        "OLDVERTEXID": 10758
      },
      "uniquefyingPropertyKeys": [],
      "allowedMutationTypes": [
        "DELETE",
        "EXTEND",
        "CHANGEBRANCH",
        "CHANGELINK",
        "ADDLINK",
        "DELETELINK",
        "DELETECHAIN"
      ],
      "vertexType": "MolecularFragment"
    },
    {
      "lstAPs": [
        {
          "id": 19207576,
          "atomPositionNumber": 1,
          "atomPositionNumberInMol": -1,
          "apClass": {
            "rule": "bridge",
            "subClass": 0,
            "bndTyp": "SINGLE"
          },
          "dirVec": {
            "x": 0.4112,
            "y": -1.2101,
            "z": -0.19930000000000003
          }
        },
        {
          "id": 19207577,
          "atomPositionNumber": 0,
          "atomPositionNumberInMol": -1,
          "apClass": {
            "rule": "bridge",
            "subClass": 0,
            "bndTyp": "SINGLE"
          },
          "dirVec": {
            "x": 0.41179999999999994,
            "y": 1.21,
            "z": -0.19930000000000003
          }
        }
      ],
      "lstSymAPs": [
        {
          "symIds": [
            0,
            1
          ]
        }
      ],
      "mol": {
        "atoms": [
          {
            "elSymbol": "C",
            "p3d": {
              "x": -1.0414,
              "y": 0.7696,
              "z": 0.0732
            }
          },
          {
            "elSymbol": "C",
            "p3d": {
              "x": -1.0417,
              "y": -0.7693,
              "z": 0.0732
            }
          },
          {
            "elSymbol": "H",
            "p3d": {
              "x": -1.6983,
              "y": 1.1431,
              "z": -0.7123
            }
          },
          {
            "elSymbol": "H",
            "p3d": {
              "x": -1.369,
              "y": 1.143,
              "z": 1.0434
            }
          },
          {
            "elSymbol": "H",
            "p3d": {
              "x": -1.3695,
              "y": -1.1425,
              "z": 1.0434
            }
          },
          {
            "elSymbol": "H",
            "p3d": {
              "x": -1.6988,
              "y": -1.1424,
              "z": -0.7123
            }
          }
        ],
        "bonds": [
          {
            "atomIds": [
              0,
              1
            ],
            "bo": "SINGLE"
          },
          {
            "atomIds": [
              0,
              2
            ],
            "bo": "SINGLE"
          },
          {
            "atomIds": [
              0,
              3
            ],
            "bo": "SINGLE"
          },
          {
            "atomIds": [
              1,
              4
            ],
            "bo": "SINGLE"
          },
          {
            "atomIds": [
              1,
              5
            ],
            "bo": "SINGLE"
          }
        ]
      },
      "vertexId": 11479020,
      "buildingBlockId": 65,
      "buildingBlockType": "FRAGMENT",
      "isRCV": false,
      "properties": {
        "ATTACHMENT_POINTS": "1#bridge:0:SINGLE:0.4118%1.2100%-0.1993 2#bridge:0:SINGLE:0.4112%-1.2101%-0.1993 ",
        "OLDVERTEXID": 222634
      },
      "uniquefyingPropertyKeys": [],
      "allowedMutationTypes": [
        "DELETE",
        "EXTEND",
        "CHANGEBRANCH",
        "CHANGELINK",
        "ADDLINK",
        "DELETELINK",
        "DELETECHAIN"
      ],
      "vertexType": "MolecularFragment"
    },
    {
      "lstAPs": [
        {
          "id": 19207578,
          "atomPositionNumber": 1,
          "atomPositionNumberInMol": -1,
          "apClass": {
            "rule": "bridge",
            "subClass": 0,
            "bndTyp": "SINGLE"
          },
          "dirVec": {
            "x": 0.4112,
            "y": -1.2101,
            "z": -0.19930000000000003
          }
        },
        {
          "id": 19207579,
          "atomPositionNumber": 0,
          "atomPositionNumberInMol": -1,
          "apClass": {
            "rule": "bridge",
            "subClass": 0,
            "bndTyp": "SINGLE"
          },
          "dirVec": {
            "x": 0.41179999999999994,
            "y": 1.21,
            "z": -0.19930000000000003
          }
        }
      ],
      "lstSymAPs": [
        {
          "symIds": [
            0,
            1
          ]
        }
      ],
      "mol": {
        "atoms": [
          {
            "elSymbol": "C",
            "p3d": {
              "x": -1.0414,
              "y": 0.7696,
              "z": 0.0732
            }
          },
          {
            "elSymbol": "C",
            "p3d": {
              "x": -1.0417,
              "y": -0.7693,
              "z": 0.0732
            }
          },
          {
            "elSymbol": "H",
            "p3d": {
              "x": -1.6983,
              "y": 1.1431,
              "z": -0.7123
            }
          },
          {
            "elSymbol": "H",
            "p3d": {
              "x": -1.369,
              "y": 1.143,
              "z": 1.0434
            }
          },
          {
            "elSymbol": "H",
            "p3d": {
              "x": -1.3695,
              "y": -1.1425,
              "z": 1.0434
            }
          },
          {
            "elSymbol": "H",
            "p3d": {
              "x": -1.6988,
              "y": -1.1424,
              "z": -0.7123
            }
          }
        ],
        "bonds": [
          {
            "atomIds": [
              0,
              1
            ],
            "bo": "SINGLE"
          },
          {
            "atomIds": [
              0,
              2
            ],
            "bo": "SINGLE"
          },
          {
            "atomIds": [
              0,
              3
            ],
            "bo": "SINGLE"
          },
          {
            "atomIds": [
              1,
              4
            ],
            "bo": "SINGLE"
          },
          {
            "atomIds": [
              1,
              5
            ],
            "bo": "SINGLE"
          }
        ]
      },
      "vertexId": 11479021,
      "buildingBlockId": 65,
      "buildingBlockType": "FRAGMENT",
      "isRCV": false,
      "properties": {
        "ATTACHMENT_POINTS": "1#bridge:0:SINGLE:0.4118%1.2100%-0.1993 2#bridge:0:SINGLE:0.4112%-1.2101%-0.1993 ",
        "OLDVERTEXID": 222569
      },
      "uniquefyingPropertyKeys": [],
      "allowedMutationTypes": [
        "DELETE",
        "EXTEND",
        "CHANGEBRANCH",
        "CHANGELINK",
        "ADDLINK",
        "DELETELINK",
        "DELETECHAIN"
      ],
      "vertexType": "MolecularFragment"
    },
    {
      "lstAPs": [
        {
          "id": 19207580,
          "atomPositionNumber": 0,
          "atomPositionNumberInMol": -1,
          "apClass": {
            "rule": "ATminus",
            "subClass": 0,
            "bndTyp": "ANY"
          },
          "dirVec": {
            "x": 0.0109,
            "y": -0.0071,
            "z": 0.0026
          }
        }
      ],
      "lstSymAPs": [],
      "mol": {
        "atoms": [
          {
            "elSymbol": "ATM",
            "p3d": {
              "x": -0.0096,
              "y": 0.0045,
              "z": -0.0011
            }
          }
        ],
        "bonds": []
      },
      "vertexId": 11479022,
      "buildingBlockId": 79,
      "buildingBlockType": "FRAGMENT",
      "isRCV": true,
      "properties": {
        "ATTACHMENT_POINTS": "1#ATminus:0:ANY:0.0109%-0.0071%0.0026 ",
        "OLDVERTEXID": 11478872
      },
      "uniquefyingPropertyKeys": [],
      "allowedMutationTypes": [
        "DELETE",
        "EXTEND",
        "CHANGEBRANCH",
        "CHANGELINK",
        "ADDLINK",
        "DELETELINK",
        "DELETECHAIN"
      ],
      "vertexType": "MolecularFragment"
    },
    {
      "lstAPs": [
        {
          "id": 19207581,
          "atomPositionNumber": 0,
          "atomPositionNumberInMol": -1,
          "apClass": {
            "rule": "ATminus",
            "subClass": 0,
            "bndTyp": "ANY"
          },
          "dirVec": {
            "x": 0.0109,
            "y": -0.0071,
            "z": 0.0026
          }
        }
      ],
      "lstSymAPs": [],
      "mol": {
        "atoms": [
          {
            "elSymbol": "ATM",
            "p3d": {
              "x": -0.0096,
              "y": 0.0045,
              "z": -0.0011
            }
          }
        ],
        "bonds": []
      },
      "vertexId": 11479023,
      "buildingBlockId": 79,
      "buildingBlockType": "FRAGMENT",
      "isRCV": true,
      "properties": {
        "ATTACHMENT_POINTS": "1#ATminus:0:ANY:0.0109%-0.0071%0.0026 ",
        "OLDVERTEXID": 11478887
      },
      "uniquefyingPropertyKeys": [],
      "allowedMutationTypes": [
        "DELETE",
        "EXTEND",
        "CHANGEBRANCH",
        "CHANGELINK",
        "ADDLINK",
        "DELETELINK",
        "DELETECHAIN"
      ],
      "vertexType": "MolecularFragment"
    }
  ],
  "gEdges": [
    {
      "srcAPID": 19207564,
      "trgAPID": 19207566,
      "bondType": "SINGLE"
    },
    {
      "srcAPID": 19207567,
      "trgAPID": 19207569,
      "bondType": "SINGLE"
    },
    {
      "srcAPID": 19207568,
      "trgAPID": 19207570,
      "bondType": "SINGLE"
    },
    {
      "srcAPID": 19207565,
      "trgAPID": 19207571,
      "bondType": "SINGLE"
    },
    {
      "srcAPID": 19207562,
      "trgAPID": 19207572,
      "bondType": "SINGLE"
    },
    {
      "srcAPID": 19207563,
      "trgAPID": 19207574,
      "bondType": "SINGLE"
    },
    {
      "srcAPID": 19207575,
      "trgAPID": 19207576,
      "bondType": "SINGLE"
    },
    {
      "srcAPID": 19207573,
      "trgAPID": 19207578,
      "bondType": "SINGLE"
    },
    {
      "srcAPID": 19207577,
      "trgAPID": 19207580,
      "bondType": "SINGLE"
    },
    {
      "srcAPID": 19207579,
      "trgAPID": 19207581,
      "bondType": "SINGLE"
    }
  ],
  "gRings": [
    {
      "vertices": [
        11479015,
        11479014,
        11479013,
        11479019,
        11479020,
        11479022
      ],
      "bndTyp": "SINGLE"
    },
    {
      "vertices": [
        11479016,
        11479014,
        11479013,
        11479018,
        11479021,
        11479023
      ],
      "bndTyp": "SINGLE"
    }
  ],
  "symVertices": [
    {
      "symIds": [
        11479015,
        11479016
      ]
    },
    {
      "symIds": [
        11479018,
        11479019
      ]
    },
    {
      "symIds": [
        11479020,
        11479021
      ]
    },
    {
      "symIds": [
        11479022,
        11479023
      ]
    }
  ]
}

> <SMILES>
[Pt]12(C#O)[P]3(N(C([H])=C(N3C(C([H])([H])S(O1)(=O)=O)([H])[H])[H])C(C([H])([H])S(O2)(=O)=O)([H])[H])C4([H])C(C([H])([H])C(C([H])([H])C4([H])[H])([H])[H])([H])[H]

$$$$
