M00003157
  CDK     05032208043D

 33 36  0  0  0  0  0  0  0  0999 V2000
   -2.4051   -0.1222    0.7664 Pt  0  0  0  0  0  0  0  0  0  0  0  0
   -4.3510   -0.1245    0.7726 C   0  0  0  0  0  0  0  0  0  0  0  0
   -5.4931   -0.1279    0.7420 O   0  0  0  0  0  0  0  0  0  0  0  0
   -0.1421   -0.1307    0.5969 P   0  0  0  0  0  0  0  0  0  0  0  0
    0.4917    0.9978    3.0615 C   0  0  0  0  0  0  0  0  0  0  0  0
    0.8813   -0.1689    2.1733 C   0  0  0  0  0  0  0  0  0  0  0  0
   -0.5711    0.9859    3.3537 H   0  0  0  0  0  0  0  0  0  0  0  0
    1.0654    0.9735    4.0003 H   0  0  0  0  0  0  0  0  0  0  0  0
    0.6907    1.9797    2.6052 H   0  0  0  0  0  0  0  0  0  0  0  0
    1.9625   -0.1409    1.9274 H   0  0  0  0  0  0  0  0  0  0  0  0
    0.7083   -1.1376    2.6948 H   0  0  0  0  0  0  0  0  0  0  0  0
   -2.3148   -2.4645    0.7442 S   0  0  0  0  0  0  0  0  0  0  0  0
   -0.8363   -2.6645   -0.2074 C   0  0  0  0  0  0  0  0  0  0  0  0
   -0.6711   -3.9043   -0.8440 C   0  0  0  0  0  0  0  0  0  0  0  0
    0.4821   -4.1453   -1.5900 C   0  0  0  0  0  0  0  0  0  0  0  0
    1.4757   -3.1611   -1.7094 C   0  0  0  0  0  0  0  0  0  0  0  0
    1.3173   -1.9288   -1.0730 C   0  0  0  0  0  0  0  0  0  0  0  0
    0.1640   -1.6906   -0.3224 C   0  0  0  0  0  0  0  0  0  0  0  0
   -1.4423   -4.6727   -0.7626 H   0  0  0  0  0  0  0  0  0  0  0  0
    2.0972   -1.1727   -1.1795 H   0  0  0  0  0  0  0  0  0  0  0  0
    0.6130   -5.1063   -2.0895 H   0  0  0  0  0  0  0  0  0  0  0  0
    2.3665   -3.3610   -2.3013 H   0  0  0  0  0  0  0  0  0  0  0  0
   -2.3299    2.2161    0.6338 S   0  0  0  0  0  0  0  0  0  0  0  0
   -0.8102    2.3989   -0.2537 C   0  0  0  0  0  0  0  0  0  0  0  0
   -0.6185    3.6325   -0.8960 C   0  0  0  0  0  0  0  0  0  0  0  0
    0.5649    3.8674   -1.5946 C   0  0  0  0  0  0  0  0  0  0  0  0
    1.5641    2.8837   -1.6606 C   0  0  0  0  0  0  0  0  0  0  0  0
    1.3792    1.6578   -1.0193 C   0  0  0  0  0  0  0  0  0  0  0  0
    0.1936    1.4246   -0.3184 C   0  0  0  0  0  0  0  0  0  0  0  0
   -1.3928    4.4011   -0.8554 H   0  0  0  0  0  0  0  0  0  0  0  0
    2.1648    0.9030   -1.0824 H   0  0  0  0  0  0  0  0  0  0  0  0
    0.7161    4.8234   -2.0981 H   0  0  0  0  0  0  0  0  0  0  0  0
    2.4799    3.0794   -2.2144 H   0  0  0  0  0  0  0  0  0  0  0  0
  2  3  3  0  0  0  0
  1  2  1  0  0  0  0
  1  4  1  0  0  0  0
  5  6  1  0  0  0  0
  5  7  1  0  0  0  0
  5  8  1  0  0  0  0
  5  9  1  0  0  0  0
  6 10  1  0  0  0  0
  6 11  1  0  0  0  0
  4  6  1  0  0  0  0
  1 12  1  0  0  0  0
 13 14  1  0  0  0  0
 14 15  2  0  0  0  0
 15 16  1  0  0  0  0
 16 17  2  0  0  0  0
 17 18  1  0  0  0  0
 13 18  2  0  0  0  0
 14 19  1  0  0  0  0
 17 20  1  0  0  0  0
 12 13  1  0  0  0  0
 15 21  1  0  0  0  0
 16 22  1  0  0  0  0
  1 23  1  0  0  0  0
 24 25  1  0  0  0  0
 25 26  2  0  0  0  0
 26 27  1  0  0  0  0
 27 28  2  0  0  0  0
 28 29  1  0  0  0  0
 24 29  2  0  0  0  0
 25 30  1  0  0  0  0
 28 31  1  0  0  0  0
 23 24  1  0  0  0  0
 26 32  1  0  0  0  0
 27 33  1  0  0  0  0
  4 29  1  0  0  0  0
  4 18  1  0  0  0  0
M  END
> <PM6_ENERGY>
93.429

> <UID>
SASOHTIFTSYXKJ-UCGVABQQNA-L

> <FITNESS>
1.14251

> <GCODE>
13605

> <GraphENC>
13605 144198_1_0,144199_39_1,144200_78_1,144201_78_1,144202_74_1,144203_74_1,144204_69_1,144205_69_1,144206_79_1,144207_1_2,144208_1_2,144209_1_2,144210_1_2,144211_79_1,492163_25_1, 144198_2_144199_3_SINGLE_scaff:0_MPhosphine:1,144199_0_144200_0_SINGLE_LPhosphineSubMSym:0_ATplus:0,144199_1_144201_0_SINGLE_LPhosphineSubMSym:0_ATplus:0,144198_1_144202_0_SINGLE_Xlig:0_Xlig:1,144198_0_144203_0_SINGLE_Xlig:0_Xlig:1,144203_1_144204_0_SINGLE_bridge:1_bridge:0,144202_1_144205_0_SINGLE_bridge:1_bridge:0,144204_1_144206_0_SINGLE_bridge:0_ATminus:0,144204_2_144207_0_SINGLE_SubBridgeArS:0_hyd:1,144204_3_144208_0_SINGLE_SubBridgeArS:0_hyd:1,144205_2_144209_0_SINGLE_SubBridgeArS:0_hyd:1,144205_3_144210_0_SINGLE_SubBridgeArS:0_hyd:1,144205_1_144211_0_SINGLE_bridge:0_ATminus:0,144199_2_492163_0_SINGLE_LPhosphineSubM:0_SubRS:1, DENOPTIMRing [vertices=[144200_78_1, 144199_39_1, 144198_1_0, 144202_74_1, 144205_69_1, 144211_79_1]] DENOPTIMRing [vertices=[144201_78_1, 144199_39_1, 144198_1_0, 144203_74_1, 144204_69_1, 144206_79_1]] SymmetricSet [symIds=[144200, 144201]] SymmetricSet [symIds=[144202, 144203]] SymmetricSet [symIds=[144204, 144205]] SymmetricSet [symIds=[144206, 144211]] SymmetricSet [symIds=[144207, 144209]] SymmetricSet [symIds=[144208, 144210]] 

> <GraphJson>
{
  "graphId": 13605,
  "gVertices": [
    {
      "lstAPs": [
        {
          "id": 433131,
          "atomPositionNumber": 0,
          "atomPositionNumberInMol": 0,
          "apClass": {
            "rule": "Xlig",
            "subClass": 0,
            "bndTyp": "SINGLE"
          },
          "dirVec": {
            "x": -2.3339,
            "y": -0.0087,
            "z": 0.8172
          }
        },
        {
          "id": 433132,
          "atomPositionNumber": 0,
          "atomPositionNumberInMol": 0,
          "apClass": {
            "rule": "Xlig",
            "subClass": 0,
            "bndTyp": "SINGLE"
          },
          "dirVec": {
            "x": 2.336,
            "y": -5.0E-4,
            "z": 0.829
          }
        },
        {
          "id": 433133,
          "atomPositionNumber": 0,
          "atomPositionNumberInMol": 0,
          "apClass": {
            "rule": "scaff",
            "subClass": 0,
            "bndTyp": "SINGLE"
          },
          "dirVec": {
            "x": -0.0095,
            "y": 0.0046,
            "z": -1.7113
          }
        }
      ],
      "lstSymAPs": [
        {
          "symIds": [
            0,
            1
          ]
        }
      ],
      "mol": {
        "atoms": [
          {
            "elSymbol": "Pt",
            "p3d": {
              "x": -0.0098,
              "y": 0.0049,
              "z": 0.6289
            }
          },
          {
            "elSymbol": "C",
            "p3d": {
              "x": -6.0E-4,
              "y": 0.0016,
              "z": 2.5609
            }
          },
          {
            "elSymbol": "O",
            "p3d": {
              "x": 0.0025,
              "y": -0.0041,
              "z": 3.6974
            }
          },
          {
            "elSymbol": "Du",
            "p3d": {
              "x": -0.007,
              "y": 1.0013,
              "z": 0.6372
            }
          },
          {
            "elSymbol": "Du",
            "p3d": {
              "x": -0.0014,
              "y": 0.9902,
              "z": 2.5698
            }
          }
        ],
        "bonds": [
          {
            "atomIds": [
              1,
              2
            ],
            "bo": "TRIPLE"
          },
          {
            "atomIds": [
              0,
              1
            ],
            "bo": "SINGLE"
          },
          {
            "atomIds": [
              3,
              0
            ],
            "bo": "SINGLE"
          },
          {
            "atomIds": [
              4,
              1
            ],
            "bo": "SINGLE"
          }
        ]
      },
      "vertexId": 144198,
      "buildingBlockId": 0,
      "buildingBlockType": "SCAFFOLD",
      "isRCV": false,
      "properties": {
        "ATTACHMENT_POINTS": "1#Xlig:0:SINGLE:-2.3339%-0.0087%0.8172,Xlig:0:SINGLE:2.3360%-0.0005%0.8290,scaff:0:SINGLE:-0.0095%0.0046%-1.7113 "
      },
      "uniquefyingPropertyKeys": [],
      "allowedMutationTypes": [
        "DELETE",
        "EXTEND",
        "CHANGEBRANCH",
        "CHANGELINK",
        "ADDLINK",
        "DELETELINK",
        "DELETECHAIN"
      ],
      "vertexType": "MolecularFragment"
    },
    {
      "lstAPs": [
        {
          "id": 433134,
          "atomPositionNumber": 0,
          "atomPositionNumberInMol": 5,
          "apClass": {
            "rule": "LPhosphineSubMSym",
            "subClass": 0,
            "bndTyp": "SINGLE"
          },
          "dirVec": {
            "x": 1.6990896281071761,
            "y": -0.022388909837196012,
            "z": -2.396120418214485
          }
        },
        {
          "id": 433135,
          "atomPositionNumber": 0,
          "atomPositionNumberInMol": 5,
          "apClass": {
            "rule": "LPhosphineSubMSym",
            "subClass": 0,
            "bndTyp": "SINGLE"
          },
          "dirVec": {
            "x": -0.7974463454160869,
            "y": -1.5166607579844005,
            "z": -2.4042461021237207
          }
        },
        {
          "id": 433136,
          "atomPositionNumber": 0,
          "atomPositionNumberInMol": 5,
          "apClass": {
            "rule": "LPhosphineSubM",
            "subClass": 0,
            "bndTyp": "SINGLE"
          },
          "dirVec": {
            "x": -0.7742387081003741,
            "y": 1.5297606753905255,
            "z": -2.410065538873874
          }
        },
        {
          "id": 433137,
          "atomPositionNumber": 0,
          "atomPositionNumberInMol": 5,
          "apClass": {
            "rule": "MPhosphine",
            "subClass": 1,
            "bndTyp": "SINGLE"
          },
          "dirVec": {
            "x": -0.009797986516488381,
            "y": 0.004897986516489378,
            "z": 0.6131934862948514
          }
        }
      ],
      "lstSymAPs": [
        {
          "symIds": [
            0,
            1
          ]
        }
      ],
      "mol": {
        "atoms": [
          {
            "elSymbol": "P",
            "p3d": {
              "x": -0.009502013483511618,
              "y": 0.004602013483510622,
              "z": -1.6955934862948516
            }
          }
        ],
        "bonds": []
      },
      "vertexId": 144199,
      "buildingBlockId": 38,
      "buildingBlockType": "FRAGMENT",
      "isRCV": false,
      "properties": {
        "ATTACHMENT_POINTS": "1#LPhosphineSubMSym:0:SINGLE:1.6991%-0.0224%-2.3961,LPhosphineSubMSym:0:SINGLE:-0.7974%-1.5167%-2.4042,LPhosphineSubM:0:SINGLE:-0.7742%1.5298%-2.4101,MPhosphine:1:SINGLE:-0.0098%0.0049%0.6132 "
      },
      "uniquefyingPropertyKeys": [],
      "allowedMutationTypes": [
        "DELETE",
        "EXTEND",
        "CHANGEBRANCH",
        "CHANGELINK",
        "ADDLINK",
        "DELETELINK",
        "DELETECHAIN"
      ],
      "vertexType": "MolecularFragment"
    },
    {
      "lstAPs": [
        {
          "id": 433138,
          "atomPositionNumber": 0,
          "atomPositionNumberInMol": 6,
          "apClass": {
            "rule": "ATplus",
            "subClass": 0,
            "bndTyp": "ANY"
          },
          "dirVec": {
            "x": 1.6990896281071761,
            "y": -0.022388909837196012,
            "z": -2.396120418214485
          }
        }
      ],
      "lstSymAPs": [],
      "mol": {
        "atoms": [
          {
            "elSymbol": "ATP",
            "p3d": {
              "x": 1.718510555115942,
              "y": -0.02269570564431036,
              "z": -2.4040830478337076
            }
          }
        ],
        "bonds": []
      },
      "vertexId": 144200,
      "buildingBlockId": 77,
      "buildingBlockType": "FRAGMENT",
      "isRCV": true,
      "properties": {
        "ATTACHMENT_POINTS": "1#ATplus:0:ANY:1.6991%-0.0224%-2.3961 "
      },
      "uniquefyingPropertyKeys": [],
      "allowedMutationTypes": [
        "DELETE",
        "EXTEND",
        "CHANGEBRANCH",
        "CHANGELINK",
        "ADDLINK",
        "DELETELINK",
        "DELETECHAIN"
      ],
      "vertexType": "MolecularFragment"
    },
    {
      "lstAPs": [
        {
          "id": 433139,
          "atomPositionNumber": 0,
          "atomPositionNumberInMol": 7,
          "apClass": {
            "rule": "ATplus",
            "subClass": 0,
            "bndTyp": "ANY"
          },
          "dirVec": {
            "x": -0.7974463454160869,
            "y": -1.5166607579844005,
            "z": -2.4042461021237207
          }
        }
      ],
      "lstSymAPs": [],
      "mol": {
        "atoms": [
          {
            "elSymbol": "ATP",
            "p3d": {
              "x": -0.8063679812732594,
              "y": -1.5338855185925786,
              "z": -2.4122699438234907
            }
          }
        ],
        "bonds": []
      },
      "vertexId": 144201,
      "buildingBlockId": 77,
      "buildingBlockType": "FRAGMENT",
      "isRCV": true,
      "properties": {
        "ATTACHMENT_POINTS": "1#ATplus:0:ANY:-0.7974%-1.5167%-2.4042 "
      },
      "uniquefyingPropertyKeys": [],
      "allowedMutationTypes": [
        "DELETE",
        "EXTEND",
        "CHANGEBRANCH",
        "CHANGELINK",
        "ADDLINK",
        "DELETELINK",
        "DELETECHAIN"
      ],
      "vertexType": "MolecularFragment"
    },
    {
      "lstAPs": [
        {
          "id": 433140,
          "atomPositionNumber": 0,
          "atomPositionNumberInMol": 15,
          "apClass": {
            "rule": "Xlig",
            "subClass": 1,
            "bndTyp": "SINGLE"
          },
          "dirVec": {
            "x": -0.102,
            "y": 0.0185,
            "z": -1.0265
          }
        },
        {
          "id": 433141,
          "atomPositionNumber": 0,
          "atomPositionNumberInMol": 15,
          "apClass": {
            "rule": "bridge",
            "subClass": 1,
            "bndTyp": "SINGLE"
          },
          "dirVec": {
            "x": -0.626,
            "y": 2.4866,
            "z": 0.7805
          }
        }
      ],
      "lstSymAPs": [],
      "mol": {
        "atoms": [
          {
            "elSymbol": "S",
            "p3d": {
              "x": -0.3267,
              "y": 2.3403,
              "z": -1.0022
            }
          }
        ],
        "bonds": []
      },
      "vertexId": 144202,
      "buildingBlockId": 73,
      "buildingBlockType": "FRAGMENT",
      "isRCV": false,
      "properties": {
        "ATTACHMENT_POINTS": "1#Xlig:1:SINGLE:-0.1020%0.0185%-1.0265,bridge:1:SINGLE:-0.6260%2.4866%0.7805 "
      },
      "uniquefyingPropertyKeys": [],
      "allowedMutationTypes": [
        "DELETE",
        "EXTEND",
        "CHANGEBRANCH",
        "CHANGELINK",
        "ADDLINK",
        "DELETELINK",
        "DELETECHAIN"
      ],
      "vertexType": "MolecularFragment"
    },
    {
      "lstAPs": [
        {
          "id": 433142,
          "atomPositionNumber": 0,
          "atomPositionNumberInMol": 27,
          "apClass": {
            "rule": "Xlig",
            "subClass": 1,
            "bndTyp": "SINGLE"
          },
          "dirVec": {
            "x": -0.102,
            "y": 0.0185,
            "z": -1.0265
          }
        },
        {
          "id": 433143,
          "atomPositionNumber": 0,
          "atomPositionNumberInMol": 27,
          "apClass": {
            "rule": "bridge",
            "subClass": 1,
            "bndTyp": "SINGLE"
          },
          "dirVec": {
            "x": -0.626,
            "y": 2.4866,
            "z": 0.7805
          }
        }
      ],
      "lstSymAPs": [],
      "mol": {
        "atoms": [
          {
            "elSymbol": "S",
            "p3d": {
              "x": -0.3267,
              "y": 2.3403,
              "z": -1.0022
            }
          }
        ],
        "bonds": []
      },
      "vertexId": 144203,
      "buildingBlockId": 73,
      "buildingBlockType": "FRAGMENT",
      "isRCV": false,
      "properties": {
        "ATTACHMENT_POINTS": "1#Xlig:1:SINGLE:-0.1020%0.0185%-1.0265,bridge:1:SINGLE:-0.6260%2.4866%0.7805 "
      },
      "uniquefyingPropertyKeys": [],
      "allowedMutationTypes": [
        "DELETE",
        "EXTEND",
        "CHANGEBRANCH",
        "CHANGELINK",
        "ADDLINK",
        "DELETELINK",
        "DELETECHAIN"
      ],
      "vertexType": "MolecularFragment"
    },
    {
      "lstAPs": [
        {
          "id": 433144,
          "atomPositionNumber": 0,
          "atomPositionNumberInMol": 28,
          "apClass": {
            "rule": "bridge",
            "subClass": 0,
            "bndTyp": "SINGLE"
          },
          "dirVec": {
            "x": 2.5022,
            "y": 1.4447,
            "z": 0.0013
          }
        },
        {
          "id": 433145,
          "atomPositionNumber": 5,
          "atomPositionNumberInMol": 33,
          "apClass": {
            "rule": "bridge",
            "subClass": 0,
            "bndTyp": "SINGLE"
          },
          "dirVec": {
            "x": 2.5022,
            "y": -1.4447,
            "z": -0.0015
          }
        },
        {
          "id": 433146,
          "atomPositionNumber": 2,
          "atomPositionNumberInMol": 30,
          "apClass": {
            "rule": "SubBridgeArS",
            "subClass": 0,
            "bndTyp": "SINGLE"
          },
          "dirVec": {
            "x": -2.5022,
            "y": 1.4447,
            "z": -0.0014
          }
        },
        {
          "id": 433147,
          "atomPositionNumber": 3,
          "atomPositionNumberInMol": 31,
          "apClass": {
            "rule": "SubBridgeArS",
            "subClass": 0,
            "bndTyp": "SINGLE"
          },
          "dirVec": {
            "x": -2.5022,
            "y": -1.4447,
            "z": 6.0E-4
          }
        }
      ],
      "lstSymAPs": [
        {
          "symIds": [
            0,
            1
          ]
        },
        {
          "symIds": [
            2,
            3
          ]
        }
      ],
      "mol": {
        "atoms": [
          {
            "elSymbol": "C",
            "p3d": {
              "x": 1.1971,
              "y": 0.6912,
              "z": 0.0015
            }
          },
          {
            "elSymbol": "C",
            "p3d": {
              "x": 0.0,
              "y": 1.3824,
              "z": -3.0E-4
            }
          },
          {
            "elSymbol": "C",
            "p3d": {
              "x": -1.1971,
              "y": 0.6912,
              "z": -1.0E-4
            }
          },
          {
            "elSymbol": "C",
            "p3d": {
              "x": -1.1971,
              "y": -0.6912,
              "z": 9.0E-4
            }
          },
          {
            "elSymbol": "C",
            "p3d": {
              "x": 0.0,
              "y": -1.3824,
              "z": 0.0017
            }
          },
          {
            "elSymbol": "C",
            "p3d": {
              "x": 1.1971,
              "y": -0.6912,
              "z": -0.0024
            }
          },
          {
            "elSymbol": "H",
            "p3d": {
              "x": 0.0,
              "y": 2.4624,
              "z": -0.0014
            }
          },
          {
            "elSymbol": "H",
            "p3d": {
              "x": 0.0,
              "y": -2.4624,
              "z": 0.0021
            }
          }
        ],
        "bonds": [
          {
            "atomIds": [
              0,
              1
            ],
            "bo": "SINGLE"
          },
          {
            "atomIds": [
              1,
              2
            ],
            "bo": "DOUBLE"
          },
          {
            "atomIds": [
              2,
              3
            ],
            "bo": "SINGLE"
          },
          {
            "atomIds": [
              3,
              4
            ],
            "bo": "DOUBLE"
          },
          {
            "atomIds": [
              4,
              5
            ],
            "bo": "SINGLE"
          },
          {
            "atomIds": [
              0,
              5
            ],
            "bo": "DOUBLE"
          },
          {
            "atomIds": [
              1,
              6
            ],
            "bo": "SINGLE"
          },
          {
            "atomIds": [
              4,
              7
            ],
            "bo": "SINGLE"
          }
        ]
      },
      "vertexId": 144204,
      "buildingBlockId": 68,
      "buildingBlockType": "FRAGMENT",
      "isRCV": false,
      "properties": {
        "ATTACHMENT_POINTS": "1#bridge:0:SINGLE:2.5022%1.4447%0.0013 3#SubBridgeArS:0:SINGLE:-2.5022%1.4447%-0.0014 4#SubBridgeArS:0:SINGLE:-2.5022%-1.4447%0.0006 6#bridge:0:SINGLE:2.5022%-1.4447%-0.0015 "
      },
      "uniquefyingPropertyKeys": [],
      "allowedMutationTypes": [
        "DELETE",
        "EXTEND",
        "CHANGEBRANCH",
        "CHANGELINK",
        "ADDLINK",
        "DELETELINK",
        "DELETECHAIN"
      ],
      "vertexType": "MolecularFragment"
    },
    {
      "lstAPs": [
        {
          "id": 433148,
          "atomPositionNumber": 0,
          "atomPositionNumberInMol": 16,
          "apClass": {
            "rule": "bridge",
            "subClass": 0,
            "bndTyp": "SINGLE"
          },
          "dirVec": {
            "x": 2.5022,
            "y": 1.4447,
            "z": 0.0013
          }
        },
        {
          "id": 433149,
          "atomPositionNumber": 5,
          "atomPositionNumberInMol": 21,
          "apClass": {
            "rule": "bridge",
            "subClass": 0,
            "bndTyp": "SINGLE"
          },
          "dirVec": {
            "x": 2.5022,
            "y": -1.4447,
            "z": -0.0015
          }
        },
        {
          "id": 433150,
          "atomPositionNumber": 2,
          "atomPositionNumberInMol": 18,
          "apClass": {
            "rule": "SubBridgeArS",
            "subClass": 0,
            "bndTyp": "SINGLE"
          },
          "dirVec": {
            "x": -2.5022,
            "y": 1.4447,
            "z": -0.0014
          }
        },
        {
          "id": 433151,
          "atomPositionNumber": 3,
          "atomPositionNumberInMol": 19,
          "apClass": {
            "rule": "SubBridgeArS",
            "subClass": 0,
            "bndTyp": "SINGLE"
          },
          "dirVec": {
            "x": -2.5022,
            "y": -1.4447,
            "z": 6.0E-4
          }
        }
      ],
      "lstSymAPs": [
        {
          "symIds": [
            0,
            1
          ]
        },
        {
          "symIds": [
            2,
            3
          ]
        }
      ],
      "mol": {
        "atoms": [
          {
            "elSymbol": "C",
            "p3d": {
              "x": 1.1971,
              "y": 0.6912,
              "z": 0.0015
            }
          },
          {
            "elSymbol": "C",
            "p3d": {
              "x": 0.0,
              "y": 1.3824,
              "z": -3.0E-4
            }
          },
          {
            "elSymbol": "C",
            "p3d": {
              "x": -1.1971,
              "y": 0.6912,
              "z": -1.0E-4
            }
          },
          {
            "elSymbol": "C",
            "p3d": {
              "x": -1.1971,
              "y": -0.6912,
              "z": 9.0E-4
            }
          },
          {
            "elSymbol": "C",
            "p3d": {
              "x": 0.0,
              "y": -1.3824,
              "z": 0.0017
            }
          },
          {
            "elSymbol": "C",
            "p3d": {
              "x": 1.1971,
              "y": -0.6912,
              "z": -0.0024
            }
          },
          {
            "elSymbol": "H",
            "p3d": {
              "x": 0.0,
              "y": 2.4624,
              "z": -0.0014
            }
          },
          {
            "elSymbol": "H",
            "p3d": {
              "x": 0.0,
              "y": -2.4624,
              "z": 0.0021
            }
          }
        ],
        "bonds": [
          {
            "atomIds": [
              0,
              1
            ],
            "bo": "SINGLE"
          },
          {
            "atomIds": [
              1,
              2
            ],
            "bo": "DOUBLE"
          },
          {
            "atomIds": [
              2,
              3
            ],
            "bo": "SINGLE"
          },
          {
            "atomIds": [
              3,
              4
            ],
            "bo": "DOUBLE"
          },
          {
            "atomIds": [
              4,
              5
            ],
            "bo": "SINGLE"
          },
          {
            "atomIds": [
              0,
              5
            ],
            "bo": "DOUBLE"
          },
          {
            "atomIds": [
              1,
              6
            ],
            "bo": "SINGLE"
          },
          {
            "atomIds": [
              4,
              7
            ],
            "bo": "SINGLE"
          }
        ]
      },
      "vertexId": 144205,
      "buildingBlockId": 68,
      "buildingBlockType": "FRAGMENT",
      "isRCV": false,
      "properties": {
        "ATTACHMENT_POINTS": "1#bridge:0:SINGLE:2.5022%1.4447%0.0013 3#SubBridgeArS:0:SINGLE:-2.5022%1.4447%-0.0014 4#SubBridgeArS:0:SINGLE:-2.5022%-1.4447%0.0006 6#bridge:0:SINGLE:2.5022%-1.4447%-0.0015 "
      },
      "uniquefyingPropertyKeys": [],
      "allowedMutationTypes": [
        "DELETE",
        "EXTEND",
        "CHANGEBRANCH",
        "CHANGELINK",
        "ADDLINK",
        "DELETELINK",
        "DELETECHAIN"
      ],
      "vertexType": "MolecularFragment"
    },
    {
      "lstAPs": [
        {
          "id": 433152,
          "atomPositionNumber": 0,
          "atomPositionNumberInMol": 36,
          "apClass": {
            "rule": "ATminus",
            "subClass": 0,
            "bndTyp": "ANY"
          },
          "dirVec": {
            "x": 0.0109,
            "y": -0.0071,
            "z": 0.0026
          }
        }
      ],
      "lstSymAPs": [],
      "mol": {
        "atoms": [
          {
            "elSymbol": "ATM",
            "p3d": {
              "x": -0.0096,
              "y": 0.0045,
              "z": -0.0011
            }
          }
        ],
        "bonds": []
      },
      "vertexId": 144206,
      "buildingBlockId": 78,
      "buildingBlockType": "FRAGMENT",
      "isRCV": true,
      "properties": {
        "ATTACHMENT_POINTS": "1#ATminus:0:ANY:0.0109%-0.0071%0.0026 "
      },
      "uniquefyingPropertyKeys": [],
      "allowedMutationTypes": [
        "DELETE",
        "EXTEND",
        "CHANGEBRANCH",
        "CHANGELINK",
        "ADDLINK",
        "DELETELINK",
        "DELETECHAIN"
      ],
      "vertexType": "MolecularFragment"
    },
    {
      "lstAPs": [
        {
          "id": 433153,
          "atomPositionNumber": 0,
          "atomPositionNumberInMol": 37,
          "apClass": {
            "rule": "hyd",
            "subClass": 1,
            "bndTyp": "SINGLE"
          },
          "dirVec": {
            "x": 0.4589,
            "y": -1.751,
            "z": 0.3869
          }
        }
      ],
      "lstSymAPs": [],
      "mol": {
        "atoms": [
          {
            "elSymbol": "H",
            "p3d": {
              "x": 0.1925,
              "y": -2.5024,
              "z": 1.1483
            }
          }
        ],
        "bonds": []
      },
      "vertexId": 144207,
      "buildingBlockId": 0,
      "buildingBlockType": "CAP",
      "isRCV": false,
      "properties": {
        "ATTACHMENT_POINTS": "1#hyd:1:SINGLE:0.4589%-1.7510%0.3869 "
      },
      "uniquefyingPropertyKeys": [],
      "allowedMutationTypes": [
        "DELETE",
        "EXTEND",
        "CHANGEBRANCH",
        "CHANGELINK",
        "ADDLINK",
        "DELETELINK",
        "DELETECHAIN"
      ],
      "vertexType": "MolecularFragment"
    },
    {
      "lstAPs": [
        {
          "id": 433154,
          "atomPositionNumber": 0,
          "atomPositionNumberInMol": 38,
          "apClass": {
            "rule": "hyd",
            "subClass": 1,
            "bndTyp": "SINGLE"
          },
          "dirVec": {
            "x": 0.4589,
            "y": -1.751,
            "z": 0.3869
          }
        }
      ],
      "lstSymAPs": [],
      "mol": {
        "atoms": [
          {
            "elSymbol": "H",
            "p3d": {
              "x": 0.1925,
              "y": -2.5024,
              "z": 1.1483
            }
          }
        ],
        "bonds": []
      },
      "vertexId": 144208,
      "buildingBlockId": 0,
      "buildingBlockType": "CAP",
      "isRCV": false,
      "properties": {
        "ATTACHMENT_POINTS": "1#hyd:1:SINGLE:0.4589%-1.7510%0.3869 "
      },
      "uniquefyingPropertyKeys": [],
      "allowedMutationTypes": [
        "DELETE",
        "EXTEND",
        "CHANGEBRANCH",
        "CHANGELINK",
        "ADDLINK",
        "DELETELINK",
        "DELETECHAIN"
      ],
      "vertexType": "MolecularFragment"
    },
    {
      "lstAPs": [
        {
          "id": 433155,
          "atomPositionNumber": 0,
          "atomPositionNumberInMol": 24,
          "apClass": {
            "rule": "hyd",
            "subClass": 1,
            "bndTyp": "SINGLE"
          },
          "dirVec": {
            "x": 0.4589,
            "y": -1.751,
            "z": 0.3869
          }
        }
      ],
      "lstSymAPs": [],
      "mol": {
        "atoms": [
          {
            "elSymbol": "H",
            "p3d": {
              "x": 0.1925,
              "y": -2.5024,
              "z": 1.1483
            }
          }
        ],
        "bonds": []
      },
      "vertexId": 144209,
      "buildingBlockId": 0,
      "buildingBlockType": "CAP",
      "isRCV": false,
      "properties": {
        "ATTACHMENT_POINTS": "1#hyd:1:SINGLE:0.4589%-1.7510%0.3869 "
      },
      "uniquefyingPropertyKeys": [],
      "allowedMutationTypes": [
        "DELETE",
        "EXTEND",
        "CHANGEBRANCH",
        "CHANGELINK",
        "ADDLINK",
        "DELETELINK",
        "DELETECHAIN"
      ],
      "vertexType": "MolecularFragment"
    },
    {
      "lstAPs": [
        {
          "id": 433156,
          "atomPositionNumber": 0,
          "atomPositionNumberInMol": 25,
          "apClass": {
            "rule": "hyd",
            "subClass": 1,
            "bndTyp": "SINGLE"
          },
          "dirVec": {
            "x": 0.4589,
            "y": -1.751,
            "z": 0.3869
          }
        }
      ],
      "lstSymAPs": [],
      "mol": {
        "atoms": [
          {
            "elSymbol": "H",
            "p3d": {
              "x": 0.1925,
              "y": -2.5024,
              "z": 1.1483
            }
          }
        ],
        "bonds": []
      },
      "vertexId": 144210,
      "buildingBlockId": 0,
      "buildingBlockType": "CAP",
      "isRCV": false,
      "properties": {
        "ATTACHMENT_POINTS": "1#hyd:1:SINGLE:0.4589%-1.7510%0.3869 "
      },
      "uniquefyingPropertyKeys": [],
      "allowedMutationTypes": [
        "DELETE",
        "EXTEND",
        "CHANGEBRANCH",
        "CHANGELINK",
        "ADDLINK",
        "DELETELINK",
        "DELETECHAIN"
      ],
      "vertexType": "MolecularFragment"
    },
    {
      "lstAPs": [
        {
          "id": 433157,
          "atomPositionNumber": 0,
          "atomPositionNumberInMol": 26,
          "apClass": {
            "rule": "ATminus",
            "subClass": 0,
            "bndTyp": "ANY"
          },
          "dirVec": {
            "x": 0.0109,
            "y": -0.0071,
            "z": 0.0026
          }
        }
      ],
      "lstSymAPs": [],
      "mol": {
        "atoms": [
          {
            "elSymbol": "ATM",
            "p3d": {
              "x": -0.0096,
              "y": 0.0045,
              "z": -0.0011
            }
          }
        ],
        "bonds": []
      },
      "vertexId": 144211,
      "buildingBlockId": 78,
      "buildingBlockType": "FRAGMENT",
      "isRCV": true,
      "properties": {
        "ATTACHMENT_POINTS": "1#ATminus:0:ANY:0.0109%-0.0071%0.0026 "
      },
      "uniquefyingPropertyKeys": [],
      "allowedMutationTypes": [
        "DELETE",
        "EXTEND",
        "CHANGEBRANCH",
        "CHANGELINK",
        "ADDLINK",
        "DELETELINK",
        "DELETECHAIN"
      ],
      "vertexType": "MolecularFragment"
    },
    {
      "lstAPs": [
        {
          "id": 433238,
          "atomPositionNumber": 1,
          "atomPositionNumberInMol": 9,
          "apClass": {
            "rule": "SubRS",
            "subClass": 1,
            "bndTyp": "SINGLE"
          },
          "dirVec": {
            "x": 0.2985,
            "y": 0.384,
            "z": -0.6258
          }
        }
      ],
      "lstSymAPs": [],
      "mol": {
        "atoms": [
          {
            "elSymbol": "C",
            "p3d": {
              "x": -1.0244,
              "y": -0.2225,
              "z": 1.3991
            }
          },
          {
            "elSymbol": "C",
            "p3d": {
              "x": 0.3973,
              "y": -0.042,
              "z": 0.8195
            }
          },
          {
            "elSymbol": "H",
            "p3d": {
              "x": -1.5635,
              "y": -0.9908,
              "z": 0.8263
            }
          },
          {
            "elSymbol": "H",
            "p3d": {
              "x": -0.941,
              "y": -0.535,
              "z": 2.446
            }
          },
          {
            "elSymbol": "H",
            "p3d": {
              "x": -1.5586,
              "y": 0.7335,
              "z": 1.3382
            }
          },
          {
            "elSymbol": "H",
            "p3d": {
              "x": 0.9335,
              "y": 0.7221,
              "z": 1.4011
            }
          },
          {
            "elSymbol": "H",
            "p3d": {
              "x": 0.927,
              "y": -1.0102,
              "z": 0.9001
            }
          }
        ],
        "bonds": [
          {
            "atomIds": [
              0,
              1
            ],
            "bo": "SINGLE"
          },
          {
            "atomIds": [
              0,
              2
            ],
            "bo": "SINGLE"
          },
          {
            "atomIds": [
              0,
              3
            ],
            "bo": "SINGLE"
          },
          {
            "atomIds": [
              0,
              4
            ],
            "bo": "SINGLE"
          },
          {
            "atomIds": [
              1,
              5
            ],
            "bo": "SINGLE"
          },
          {
            "atomIds": [
              1,
              6
            ],
            "bo": "SINGLE"
          }
        ]
      },
      "vertexId": 492163,
      "buildingBlockId": 24,
      "buildingBlockType": "FRAGMENT",
      "isRCV": false,
      "properties": {
        "ATTACHMENT_POINTS": "2#SubRS:1:SINGLE:0.2985%0.3840%-0.6258 "
      },
      "uniquefyingPropertyKeys": [],
      "allowedMutationTypes": [
        "DELETE",
        "EXTEND",
        "CHANGEBRANCH",
        "CHANGELINK",
        "ADDLINK",
        "DELETELINK",
        "DELETECHAIN"
      ],
      "vertexType": "MolecularFragment"
    }
  ],
  "gEdges": [
    {
      "srcAPID": 433133,
      "trgAPID": 433137,
      "bondType": "SINGLE"
    },
    {
      "srcAPID": 433134,
      "trgAPID": 433138,
      "bondType": "SINGLE"
    },
    {
      "srcAPID": 433135,
      "trgAPID": 433139,
      "bondType": "SINGLE"
    },
    {
      "srcAPID": 433132,
      "trgAPID": 433140,
      "bondType": "SINGLE"
    },
    {
      "srcAPID": 433131,
      "trgAPID": 433142,
      "bondType": "SINGLE"
    },
    {
      "srcAPID": 433143,
      "trgAPID": 433144,
      "bondType": "SINGLE"
    },
    {
      "srcAPID": 433141,
      "trgAPID": 433148,
      "bondType": "SINGLE"
    },
    {
      "srcAPID": 433145,
      "trgAPID": 433152,
      "bondType": "SINGLE"
    },
    {
      "srcAPID": 433146,
      "trgAPID": 433153,
      "bondType": "SINGLE"
    },
    {
      "srcAPID": 433147,
      "trgAPID": 433154,
      "bondType": "SINGLE"
    },
    {
      "srcAPID": 433150,
      "trgAPID": 433155,
      "bondType": "SINGLE"
    },
    {
      "srcAPID": 433151,
      "trgAPID": 433156,
      "bondType": "SINGLE"
    },
    {
      "srcAPID": 433149,
      "trgAPID": 433157,
      "bondType": "SINGLE"
    },
    {
      "srcAPID": 433136,
      "trgAPID": 433238,
      "bondType": "SINGLE"
    }
  ],
  "gRings": [
    {
      "vertices": [
        144200,
        144199,
        144198,
        144202,
        144205,
        144211
      ],
      "bndTyp": "SINGLE"
    },
    {
      "vertices": [
        144201,
        144199,
        144198,
        144203,
        144204,
        144206
      ],
      "bndTyp": "SINGLE"
    }
  ],
  "symVertices": [
    {
      "symIds": [
        144200,
        144201
      ]
    },
    {
      "symIds": [
        144202,
        144203
      ]
    },
    {
      "symIds": [
        144204,
        144205
      ]
    },
    {
      "symIds": [
        144206,
        144211
      ]
    },
    {
      "symIds": [
        144207,
        144209
      ]
    },
    {
      "symIds": [
        144208,
        144210
      ]
    }
  ]
}

> <SMILES>
[Pt]12(C#O)[P](C(C([H])([H])[H])([H])[H])(C=3C(=C(C(=C(C3S1)[H])[H])[H])[H])C=4C(=C(C(=C(C4S2)[H])[H])[H])[H]

$$$$
