M00000034
  CDK     05032207483D

 37 39  0  0  0  0  0  0  0  0999 V2000
   -1.8889   -0.2817    0.2874 Pt  0  0  0  0  0  0  0  0  0  0  0  0
   -3.8615   -0.2856    0.2472 C   0  0  0  0  0  0  0  0  0  0  0  0
   -4.9997   -0.2880    0.2236 O   0  0  0  0  0  0  0  0  0  0  0  0
    0.3740   -0.2880    0.3771 P   0  0  0  0  0  0  0  0  0  0  0  0
    1.1432    0.6736   -0.8616 N   0  0  0  0  0  0  0  0  0  0  0  0
    2.5335    0.6672   -1.1687 C   0  0  0  0  0  0  0  0  0  0  0  0
    3.2451    0.0547   -0.6500 H   0  0  0  0  0  0  0  0  0  0  0  0
    2.7345    1.5583   -2.2054 C   0  0  0  0  0  0  0  0  0  0  0  0
    3.6679    1.7955   -2.6794 H   0  0  0  0  0  0  0  0  0  0  0  0
    1.4657    2.1351   -2.5563 C   0  0  0  0  0  0  0  0  0  0  0  0
    1.3134    2.8674   -3.3269 H   0  0  0  0  0  0  0  0  0  0  0  0
    0.4990    1.5924   -1.7323 C   0  0  0  0  0  0  0  0  0  0  0  0
   -0.5684    1.7947   -1.6833 H   0  0  0  0  0  0  0  0  0  0  0  0
   -1.9793    1.7352   -0.0829 O   0  0  0  0  0  0  0  0  0  0  0  0
   -1.5772    3.7742    0.6423 O   0  0  0  0  0  0  0  0  0  0  0  0
   -1.5698    2.5893    0.8747 C   0  0  0  0  0  0  0  0  0  0  0  0
   -1.1231    1.9625    2.1875 C   0  0  0  0  0  0  0  0  0  0  0  0
    0.4045    1.8127    2.2434 C   0  0  0  0  0  0  0  0  0  0  0  0
    0.9240    0.3895    2.0400 C   0  0  0  0  0  0  0  0  0  0  0  0
   -1.4520    2.6447    3.0057 H   0  0  0  0  0  0  0  0  0  0  0  0
   -1.6578    1.0094    2.3972 H   0  0  0  0  0  0  0  0  0  0  0  0
    0.8845    2.5227    1.5304 H   0  0  0  0  0  0  0  0  0  0  0  0
    0.7541    2.1623    3.2419 H   0  0  0  0  0  0  0  0  0  0  0  0
    2.0303    0.3751    2.1278 H   0  0  0  0  0  0  0  0  0  0  0  0
    0.5478   -0.2784    2.8482 H   0  0  0  0  0  0  0  0  0  0  0  0
   -2.0675   -2.2846    0.7064 O   0  0  0  0  0  0  0  0  0  0  0  0
   -1.7323   -4.3822    0.1259 O   0  0  0  0  0  0  0  0  0  0  0  0
   -1.5877   -3.2122   -0.1386 C   0  0  0  0  0  0  0  0  0  0  0  0
   -0.8692   -2.6737   -1.3649 C   0  0  0  0  0  0  0  0  0  0  0  0
    0.6469   -2.6276   -1.1323 C   0  0  0  0  0  0  0  0  0  0  0  0
    1.0743   -2.0177    0.2040 C   0  0  0  0  0  0  0  0  0  0  0  0
   -1.0834   -3.3559   -2.2198 H   0  0  0  0  0  0  0  0  0  0  0  0
   -1.2866   -1.6941   -1.6885 H   0  0  0  0  0  0  0  0  0  0  0  0
    1.0406   -3.6707   -1.1722 H   0  0  0  0  0  0  0  0  0  0  0  0
    1.1323   -2.1064   -1.9865 H   0  0  0  0  0  0  0  0  0  0  0  0
    0.7094   -2.6506    1.0491 H   0  0  0  0  0  0  0  0  0  0  0  0
    2.1794   -2.0190    0.2901 H   0  0  0  0  0  0  0  0  0  0  0  0
  2  3  3  0  0  0  0
  1  2  1  0  0  0  0
  1  4  1  0  0  0  0
  5  6  1  0  0  0  0
  6  7  1  0  0  0  0
  8  6  2  0  0  0  0
  9  8  1  0  0  0  0
 10  8  1  0  0  0  0
 11 10  1  0  0  0  0
 12  5  1  0  0  0  0
 13 12  1  0  0  0  0
 10 12  2  0  0  0  0
  4  5  1  0  0  0  0
 15 16  2  0  0  0  0
 16 14  1  0  0  0  0
  1 14  1  0  0  0  0
 17 18  1  0  0  0  0
 18 19  1  0  0  0  0
 17 20  1  0  0  0  0
 17 21  1  0  0  0  0
 18 22  1  0  0  0  0
 18 23  1  0  0  0  0
 19 24  1  0  0  0  0
 19 25  1  0  0  0  0
 16 17  1  0  0  0  0
 27 28  2  0  0  0  0
 28 26  1  0  0  0  0
  1 26  1  0  0  0  0
 29 30  1  0  0  0  0
 30 31  1  0  0  0  0
 29 32  1  0  0  0  0
 29 33  1  0  0  0  0
 30 34  1  0  0  0  0
 30 35  1  0  0  0  0
 31 36  1  0  0  0  0
 31 37  1  0  0  0  0
 28 29  1  0  0  0  0
  4 31  1  0  0  0  0
  4 19  1  0  0  0  0
M  END
> <PM6_ENERGY>
-726.568

> <UID>
PFJTWUSAHDEIQH-VYKVQPRHNA-L

> <FITNESS>
1.13845

> <GCODE>
9958

> <GraphENC>
9958 138858_1_0,138859_4_1,138860_78_1,138861_78_1,138862_76_1,138863_76_1,138864_65_1,138865_65_1,138866_79_1,138867_79_1,379379_10_1, 138858_2_138859_3_SINGLE_scaff:0_MMonoAminoPhosphine:1,138859_1_138860_0_SINGLE_LMonoAminoPhosphineSubR:0_ATplus:0,138859_2_138861_0_SINGLE_LMonoAminoPhosphineSubR:0_ATplus:0,138858_0_138862_0_SINGLE_Xlig:0_Xlig:1,138858_1_138863_0_SINGLE_Xlig:0_Xlig:1,138862_1_138864_0_SINGLE_bridge:1_bridge:0,138863_1_138865_0_SINGLE_bridge:1_bridge:0,138864_1_138866_0_SINGLE_bridge:0_ATminus:0,138865_1_138867_0_SINGLE_bridge:0_ATminus:0,138859_0_379379_0_SINGLE_LMonoAminoPhosphineN:0_LAminoPhosphineCycloN:1, DENOPTIMRing [vertices=[138861_78_1, 138859_4_1, 138858_1_0, 138863_76_1, 138865_65_1, 138867_79_1]] DENOPTIMRing [vertices=[138860_78_1, 138859_4_1, 138858_1_0, 138862_76_1, 138864_65_1, 138866_79_1]] SymmetricSet [symIds=[138860, 138861]] SymmetricSet [symIds=[138862, 138863]] SymmetricSet [symIds=[138864, 138865]] SymmetricSet [symIds=[138866, 138867]] 

> <GraphJson>
{
  "graphId": 9958,
  "gVertices": [
    {
      "lstAPs": [
        {
          "id": 247853,
          "atomPositionNumber": 0,
          "atomPositionNumberInMol": 0,
          "apClass": {
            "rule": "Xlig",
            "subClass": 0,
            "bndTyp": "SINGLE"
          },
          "dirVec": {
            "x": -2.3339,
            "y": -0.0087,
            "z": 0.8172
          }
        },
        {
          "id": 247854,
          "atomPositionNumber": 0,
          "atomPositionNumberInMol": 0,
          "apClass": {
            "rule": "Xlig",
            "subClass": 0,
            "bndTyp": "SINGLE"
          },
          "dirVec": {
            "x": 2.336,
            "y": -5.0E-4,
            "z": 0.829
          }
        },
        {
          "id": 247855,
          "atomPositionNumber": 0,
          "atomPositionNumberInMol": 0,
          "apClass": {
            "rule": "scaff",
            "subClass": 0,
            "bndTyp": "SINGLE"
          },
          "dirVec": {
            "x": -0.0095,
            "y": 0.0046,
            "z": -1.7113
          }
        }
      ],
      "lstSymAPs": [
        {
          "symIds": [
            0,
            1
          ]
        }
      ],
      "mol": {
        "atoms": [
          {
            "elSymbol": "Pt",
            "p3d": {
              "x": -0.0098,
              "y": 0.0049,
              "z": 0.6289
            }
          },
          {
            "elSymbol": "C",
            "p3d": {
              "x": -6.0E-4,
              "y": 0.0016,
              "z": 2.5609
            }
          },
          {
            "elSymbol": "O",
            "p3d": {
              "x": 0.0025,
              "y": -0.0041,
              "z": 3.6974
            }
          },
          {
            "elSymbol": "Du",
            "p3d": {
              "x": -0.007,
              "y": 1.0013,
              "z": 0.6372
            }
          },
          {
            "elSymbol": "Du",
            "p3d": {
              "x": -0.0014,
              "y": 0.9902,
              "z": 2.5698
            }
          }
        ],
        "bonds": [
          {
            "atomIds": [
              1,
              2
            ],
            "bo": "TRIPLE"
          },
          {
            "atomIds": [
              0,
              1
            ],
            "bo": "SINGLE"
          },
          {
            "atomIds": [
              3,
              0
            ],
            "bo": "SINGLE"
          },
          {
            "atomIds": [
              4,
              1
            ],
            "bo": "SINGLE"
          }
        ]
      },
      "vertexId": 138858,
      "buildingBlockId": 0,
      "buildingBlockType": "SCAFFOLD",
      "isRCV": false,
      "properties": {
        "ATTACHMENT_POINTS": "1#Xlig:0:SINGLE:-2.3339%-0.0087%0.8172,Xlig:0:SINGLE:2.3360%-0.0005%0.8290,scaff:0:SINGLE:-0.0095%0.0046%-1.7113 "
      },
      "uniquefyingPropertyKeys": [],
      "allowedMutationTypes": [
        "DELETE",
        "EXTEND",
        "CHANGEBRANCH",
        "CHANGELINK",
        "ADDLINK",
        "DELETELINK",
        "DELETECHAIN"
      ],
      "vertexType": "MolecularFragment"
    },
    {
      "lstAPs": [
        {
          "id": 247856,
          "atomPositionNumber": 0,
          "atomPositionNumberInMol": 5,
          "apClass": {
            "rule": "LMonoAminoPhosphineN",
            "subClass": 0,
            "bndTyp": "SINGLE"
          },
          "dirVec": {
            "x": 1.5576360714278132,
            "y": 0.04489007948791429,
            "z": -2.241202695388179
          }
        },
        {
          "id": 247857,
          "atomPositionNumber": 0,
          "atomPositionNumberInMol": 5,
          "apClass": {
            "rule": "LMonoAminoPhosphineSubR",
            "subClass": 0,
            "bndTyp": "SINGLE"
          },
          "dirVec": {
            "x": -0.7810356757784612,
            "y": -1.5410049186499182,
            "z": -2.385973734275668
          }
        },
        {
          "id": 247858,
          "atomPositionNumber": 0,
          "atomPositionNumberInMol": 5,
          "apClass": {
            "rule": "LMonoAminoPhosphineSubR",
            "subClass": 0,
            "bndTyp": "SINGLE"
          },
          "dirVec": {
            "x": -0.8999787291693976,
            "y": 1.4011327409517724,
            "z": -2.44926553472034
          }
        },
        {
          "id": 247859,
          "atomPositionNumber": 0,
          "atomPositionNumberInMol": 5,
          "apClass": {
            "rule": "MMonoAminoPhosphine",
            "subClass": 1,
            "bndTyp": "SINGLE"
          },
          "dirVec": {
            "x": -0.009798817884168738,
            "y": 0.004898817884168566,
            "z": 0.6196787084387736
          }
        }
      ],
      "lstSymAPs": [
        {
          "symIds": [
            1,
            2
          ]
        }
      ],
      "mol": {
        "atoms": [
          {
            "elSymbol": "P",
            "p3d": {
              "x": -0.009501182115831262,
              "y": 0.0046011821158314335,
              "z": -1.702078708438774
            }
          }
        ],
        "bonds": []
      },
      "vertexId": 138859,
      "buildingBlockId": 3,
      "buildingBlockType": "FRAGMENT",
      "isRCV": false,
      "properties": {
        "ATTACHMENT_POINTS": "1#LMonoAminoPhosphineN:0:SINGLE:1.5576%0.0449%-2.2412,LMonoAminoPhosphineSubR:0:SINGLE:-0.7810%-1.5410%-2.3860,LMonoAminoPhosphineSubR:0:SINGLE:-0.9000%1.4011%-2.4493,MMonoAminoPhosphine:1:SINGLE:-0.0098%0.0049%0.6197 "
      },
      "uniquefyingPropertyKeys": [],
      "allowedMutationTypes": [
        "DELETE",
        "EXTEND",
        "CHANGEBRANCH",
        "CHANGELINK",
        "ADDLINK",
        "DELETELINK",
        "DELETECHAIN"
      ],
      "vertexType": "MolecularFragment"
    },
    {
      "lstAPs": [
        {
          "id": 247860,
          "atomPositionNumber": 0,
          "atomPositionNumberInMol": 6,
          "apClass": {
            "rule": "ATplus",
            "subClass": 0,
            "bndTyp": "ANY"
          },
          "dirVec": {
            "x": -0.7810356757784612,
            "y": -1.5410049186499182,
            "z": -2.385973734275668
          }
        }
      ],
      "lstSymAPs": [],
      "mol": {
        "atoms": [
          {
            "elSymbol": "ATP",
            "p3d": {
              "x": -0.7897530259255463,
              "y": -1.5584682850716631,
              "z": -2.393700870849651
            }
          }
        ],
        "bonds": []
      },
      "vertexId": 138860,
      "buildingBlockId": 77,
      "buildingBlockType": "FRAGMENT",
      "isRCV": true,
      "properties": {
        "ATTACHMENT_POINTS": "1#ATplus:0:ANY:-0.7810%-1.5410%-2.3860 "
      },
      "uniquefyingPropertyKeys": [],
      "allowedMutationTypes": [
        "DELETE",
        "EXTEND",
        "CHANGEBRANCH",
        "CHANGELINK",
        "ADDLINK",
        "DELETELINK",
        "DELETECHAIN"
      ],
      "vertexType": "MolecularFragment"
    },
    {
      "lstAPs": [
        {
          "id": 247861,
          "atomPositionNumber": 0,
          "atomPositionNumberInMol": 7,
          "apClass": {
            "rule": "ATplus",
            "subClass": 0,
            "bndTyp": "ANY"
          },
          "dirVec": {
            "x": -0.8999787291693976,
            "y": 1.4011327409517724,
            "z": -2.44926553472034
          }
        }
      ],
      "lstSymAPs": [],
      "mol": {
        "atoms": [
          {
            "elSymbol": "ATP",
            "p3d": {
              "x": -0.9102665054814141,
              "y": 1.4172670099600302,
              "z": -2.457897858979952
            }
          }
        ],
        "bonds": []
      },
      "vertexId": 138861,
      "buildingBlockId": 77,
      "buildingBlockType": "FRAGMENT",
      "isRCV": true,
      "properties": {
        "ATTACHMENT_POINTS": "1#ATplus:0:ANY:-0.9000%1.4011%-2.4493 "
      },
      "uniquefyingPropertyKeys": [],
      "allowedMutationTypes": [
        "DELETE",
        "EXTEND",
        "CHANGEBRANCH",
        "CHANGELINK",
        "ADDLINK",
        "DELETELINK",
        "DELETECHAIN"
      ],
      "vertexType": "MolecularFragment"
    },
    {
      "lstAPs": [
        {
          "id": 247862,
          "atomPositionNumber": 0,
          "atomPositionNumberInMol": 17,
          "apClass": {
            "rule": "Xlig",
            "subClass": 1,
            "bndTyp": "SINGLE"
          },
          "dirVec": {
            "x": 2.9612,
            "y": 0.482,
            "z": 3.1597
          }
        },
        {
          "id": 247863,
          "atomPositionNumber": 2,
          "atomPositionNumberInMol": 19,
          "apClass": {
            "rule": "bridge",
            "subClass": 1,
            "bndTyp": "SINGLE"
          },
          "dirVec": {
            "x": 0.31479999999999997,
            "y": 0.7222,
            "z": 2.0817
          }
        }
      ],
      "lstSymAPs": [],
      "mol": {
        "atoms": [
          {
            "elSymbol": "O",
            "p3d": {
              "x": 2.5349,
              "y": 1.3185,
              "z": 1.3621
            }
          },
          {
            "elSymbol": "O",
            "p3d": {
              "x": 0.8537,
              "y": 1.7439,
              "z": 0.0154
            }
          },
          {
            "elSymbol": "C",
            "p3d": {
              "x": 1.2704,
              "y": 1.2787,
              "z": 1.0674
            }
          }
        ],
        "bonds": [
          {
            "atomIds": [
              1,
              2
            ],
            "bo": "DOUBLE"
          },
          {
            "atomIds": [
              2,
              0
            ],
            "bo": "SINGLE"
          }
        ]
      },
      "vertexId": 138862,
      "buildingBlockId": 75,
      "buildingBlockType": "FRAGMENT",
      "isRCV": false,
      "properties": {
        "ATTACHMENT_POINTS": "1#Xlig:1:SINGLE:2.9612%0.4820%3.1597 3#bridge:1:SINGLE:0.3148%0.7222%2.0817 "
      },
      "uniquefyingPropertyKeys": [],
      "allowedMutationTypes": [
        "DELETE",
        "EXTEND",
        "CHANGEBRANCH",
        "CHANGELINK",
        "ADDLINK",
        "DELETELINK",
        "DELETECHAIN"
      ],
      "vertexType": "MolecularFragment"
    },
    {
      "lstAPs": [
        {
          "id": 247864,
          "atomPositionNumber": 0,
          "atomPositionNumberInMol": 30,
          "apClass": {
            "rule": "Xlig",
            "subClass": 1,
            "bndTyp": "SINGLE"
          },
          "dirVec": {
            "x": 2.9612,
            "y": 0.482,
            "z": 3.1597
          }
        },
        {
          "id": 247865,
          "atomPositionNumber": 2,
          "atomPositionNumberInMol": 32,
          "apClass": {
            "rule": "bridge",
            "subClass": 1,
            "bndTyp": "SINGLE"
          },
          "dirVec": {
            "x": 0.31479999999999997,
            "y": 0.7222,
            "z": 2.0817
          }
        }
      ],
      "lstSymAPs": [],
      "mol": {
        "atoms": [
          {
            "elSymbol": "O",
            "p3d": {
              "x": 2.5349,
              "y": 1.3185,
              "z": 1.3621
            }
          },
          {
            "elSymbol": "O",
            "p3d": {
              "x": 0.8537,
              "y": 1.7439,
              "z": 0.0154
            }
          },
          {
            "elSymbol": "C",
            "p3d": {
              "x": 1.2704,
              "y": 1.2787,
              "z": 1.0674
            }
          }
        ],
        "bonds": [
          {
            "atomIds": [
              1,
              2
            ],
            "bo": "DOUBLE"
          },
          {
            "atomIds": [
              2,
              0
            ],
            "bo": "SINGLE"
          }
        ]
      },
      "vertexId": 138863,
      "buildingBlockId": 75,
      "buildingBlockType": "FRAGMENT",
      "isRCV": false,
      "properties": {
        "ATTACHMENT_POINTS": "1#Xlig:1:SINGLE:2.9612%0.4820%3.1597 3#bridge:1:SINGLE:0.3148%0.7222%2.0817 "
      },
      "uniquefyingPropertyKeys": [],
      "allowedMutationTypes": [
        "DELETE",
        "EXTEND",
        "CHANGEBRANCH",
        "CHANGELINK",
        "ADDLINK",
        "DELETELINK",
        "DELETECHAIN"
      ],
      "vertexType": "MolecularFragment"
    },
    {
      "lstAPs": [
        {
          "id": 247866,
          "atomPositionNumber": 0,
          "atomPositionNumberInMol": 20,
          "apClass": {
            "rule": "bridge",
            "subClass": 0,
            "bndTyp": "SINGLE"
          },
          "dirVec": {
            "x": -1.2321,
            "y": -0.7501,
            "z": -0.255
          }
        },
        {
          "id": 247867,
          "atomPositionNumber": 2,
          "atomPositionNumberInMol": 22,
          "apClass": {
            "rule": "bridge",
            "subClass": 0,
            "bndTyp": "SINGLE"
          },
          "dirVec": {
            "x": 1.2657,
            "y": -0.692,
            "z": -0.255
          }
        }
      ],
      "lstSymAPs": [
        {
          "symIds": [
            0,
            1
          ]
        }
      ],
      "mol": {
        "atoms": [
          {
            "elSymbol": "C",
            "p3d": {
              "x": -1.2657,
              "y": 0.692,
              "z": 0.255
            }
          },
          {
            "elSymbol": "C",
            "p3d": {
              "x": -0.0335,
              "y": 1.4421,
              "z": -0.255
            }
          },
          {
            "elSymbol": "C",
            "p3d": {
              "x": 1.2321,
              "y": 0.7501,
              "z": 0.255
            }
          },
          {
            "elSymbol": "H",
            "p3d": {
              "x": -2.1673,
              "y": 1.1851,
              "z": -0.1083
            }
          },
          {
            "elSymbol": "H",
            "p3d": {
              "x": -1.2657,
              "y": 0.692,
              "z": 1.345
            }
          },
          {
            "elSymbol": "H",
            "p3d": {
              "x": -0.0335,
              "y": 1.4421,
              "z": -1.345
            }
          },
          {
            "elSymbol": "H",
            "p3d": {
              "x": -0.0574,
              "y": 2.4695,
              "z": 0.1083
            }
          },
          {
            "elSymbol": "H",
            "p3d": {
              "x": 2.11,
              "y": 1.2844,
              "z": -0.1083
            }
          },
          {
            "elSymbol": "H",
            "p3d": {
              "x": 1.2321,
              "y": 0.7501,
              "z": 1.345
            }
          }
        ],
        "bonds": [
          {
            "atomIds": [
              0,
              1
            ],
            "bo": "SINGLE"
          },
          {
            "atomIds": [
              1,
              2
            ],
            "bo": "SINGLE"
          },
          {
            "atomIds": [
              0,
              3
            ],
            "bo": "SINGLE"
          },
          {
            "atomIds": [
              0,
              4
            ],
            "bo": "SINGLE"
          },
          {
            "atomIds": [
              1,
              5
            ],
            "bo": "SINGLE"
          },
          {
            "atomIds": [
              1,
              6
            ],
            "bo": "SINGLE"
          },
          {
            "atomIds": [
              2,
              7
            ],
            "bo": "SINGLE"
          },
          {
            "atomIds": [
              2,
              8
            ],
            "bo": "SINGLE"
          }
        ]
      },
      "vertexId": 138864,
      "buildingBlockId": 64,
      "buildingBlockType": "FRAGMENT",
      "isRCV": false,
      "properties": {
        "ATTACHMENT_POINTS": "1#bridge:0:SINGLE:-1.2321%-0.7501%-0.2550 3#bridge:0:SINGLE:1.2657%-0.6920%-0.2550 "
      },
      "uniquefyingPropertyKeys": [],
      "allowedMutationTypes": [
        "DELETE",
        "EXTEND",
        "CHANGEBRANCH",
        "CHANGELINK",
        "ADDLINK",
        "DELETELINK",
        "DELETECHAIN"
      ],
      "vertexType": "MolecularFragment"
    },
    {
      "lstAPs": [
        {
          "id": 247868,
          "atomPositionNumber": 0,
          "atomPositionNumberInMol": 33,
          "apClass": {
            "rule": "bridge",
            "subClass": 0,
            "bndTyp": "SINGLE"
          },
          "dirVec": {
            "x": -1.2321,
            "y": -0.7501,
            "z": -0.255
          }
        },
        {
          "id": 247869,
          "atomPositionNumber": 2,
          "atomPositionNumberInMol": 35,
          "apClass": {
            "rule": "bridge",
            "subClass": 0,
            "bndTyp": "SINGLE"
          },
          "dirVec": {
            "x": 1.2657,
            "y": -0.692,
            "z": -0.255
          }
        }
      ],
      "lstSymAPs": [
        {
          "symIds": [
            0,
            1
          ]
        }
      ],
      "mol": {
        "atoms": [
          {
            "elSymbol": "C",
            "p3d": {
              "x": -1.2657,
              "y": 0.692,
              "z": 0.255
            }
          },
          {
            "elSymbol": "C",
            "p3d": {
              "x": -0.0335,
              "y": 1.4421,
              "z": -0.255
            }
          },
          {
            "elSymbol": "C",
            "p3d": {
              "x": 1.2321,
              "y": 0.7501,
              "z": 0.255
            }
          },
          {
            "elSymbol": "H",
            "p3d": {
              "x": -2.1673,
              "y": 1.1851,
              "z": -0.1083
            }
          },
          {
            "elSymbol": "H",
            "p3d": {
              "x": -1.2657,
              "y": 0.692,
              "z": 1.345
            }
          },
          {
            "elSymbol": "H",
            "p3d": {
              "x": -0.0335,
              "y": 1.4421,
              "z": -1.345
            }
          },
          {
            "elSymbol": "H",
            "p3d": {
              "x": -0.0574,
              "y": 2.4695,
              "z": 0.1083
            }
          },
          {
            "elSymbol": "H",
            "p3d": {
              "x": 2.11,
              "y": 1.2844,
              "z": -0.1083
            }
          },
          {
            "elSymbol": "H",
            "p3d": {
              "x": 1.2321,
              "y": 0.7501,
              "z": 1.345
            }
          }
        ],
        "bonds": [
          {
            "atomIds": [
              0,
              1
            ],
            "bo": "SINGLE"
          },
          {
            "atomIds": [
              1,
              2
            ],
            "bo": "SINGLE"
          },
          {
            "atomIds": [
              0,
              3
            ],
            "bo": "SINGLE"
          },
          {
            "atomIds": [
              0,
              4
            ],
            "bo": "SINGLE"
          },
          {
            "atomIds": [
              1,
              5
            ],
            "bo": "SINGLE"
          },
          {
            "atomIds": [
              1,
              6
            ],
            "bo": "SINGLE"
          },
          {
            "atomIds": [
              2,
              7
            ],
            "bo": "SINGLE"
          },
          {
            "atomIds": [
              2,
              8
            ],
            "bo": "SINGLE"
          }
        ]
      },
      "vertexId": 138865,
      "buildingBlockId": 64,
      "buildingBlockType": "FRAGMENT",
      "isRCV": false,
      "properties": {
        "ATTACHMENT_POINTS": "1#bridge:0:SINGLE:-1.2321%-0.7501%-0.2550 3#bridge:0:SINGLE:1.2657%-0.6920%-0.2550 "
      },
      "uniquefyingPropertyKeys": [],
      "allowedMutationTypes": [
        "DELETE",
        "EXTEND",
        "CHANGEBRANCH",
        "CHANGELINK",
        "ADDLINK",
        "DELETELINK",
        "DELETECHAIN"
      ],
      "vertexType": "MolecularFragment"
    },
    {
      "lstAPs": [
        {
          "id": 247870,
          "atomPositionNumber": 0,
          "atomPositionNumberInMol": 29,
          "apClass": {
            "rule": "ATminus",
            "subClass": 0,
            "bndTyp": "ANY"
          },
          "dirVec": {
            "x": 0.0109,
            "y": -0.0071,
            "z": 0.0026
          }
        }
      ],
      "lstSymAPs": [],
      "mol": {
        "atoms": [
          {
            "elSymbol": "ATM",
            "p3d": {
              "x": -0.0096,
              "y": 0.0045,
              "z": -0.0011
            }
          }
        ],
        "bonds": []
      },
      "vertexId": 138866,
      "buildingBlockId": 78,
      "buildingBlockType": "FRAGMENT",
      "isRCV": true,
      "properties": {
        "ATTACHMENT_POINTS": "1#ATminus:0:ANY:0.0109%-0.0071%0.0026 "
      },
      "uniquefyingPropertyKeys": [],
      "allowedMutationTypes": [
        "DELETE",
        "EXTEND",
        "CHANGEBRANCH",
        "CHANGELINK",
        "ADDLINK",
        "DELETELINK",
        "DELETECHAIN"
      ],
      "vertexType": "MolecularFragment"
    },
    {
      "lstAPs": [
        {
          "id": 247871,
          "atomPositionNumber": 0,
          "atomPositionNumberInMol": 42,
          "apClass": {
            "rule": "ATminus",
            "subClass": 0,
            "bndTyp": "ANY"
          },
          "dirVec": {
            "x": 0.0109,
            "y": -0.0071,
            "z": 0.0026
          }
        }
      ],
      "lstSymAPs": [],
      "mol": {
        "atoms": [
          {
            "elSymbol": "ATM",
            "p3d": {
              "x": -0.0096,
              "y": 0.0045,
              "z": -0.0011
            }
          }
        ],
        "bonds": []
      },
      "vertexId": 138867,
      "buildingBlockId": 78,
      "buildingBlockType": "FRAGMENT",
      "isRCV": true,
      "properties": {
        "ATTACHMENT_POINTS": "1#ATminus:0:ANY:0.0109%-0.0071%0.0026 "
      },
      "uniquefyingPropertyKeys": [],
      "allowedMutationTypes": [
        "DELETE",
        "EXTEND",
        "CHANGEBRANCH",
        "CHANGELINK",
        "ADDLINK",
        "DELETELINK",
        "DELETECHAIN"
      ],
      "vertexType": "MolecularFragment"
    },
    {
      "lstAPs": [
        {
          "id": 247947,
          "atomPositionNumber": 0,
          "atomPositionNumberInMol": 8,
          "apClass": {
            "rule": "LAminoPhosphineCycloN",
            "subClass": 1,
            "bndTyp": "SINGLE"
          },
          "dirVec": {
            "x": -1.3075,
            "y": 5.4354,
            "z": 7.3919
          }
        }
      ],
      "lstSymAPs": [],
      "mol": {
        "atoms": [
          {
            "elSymbol": "N",
            "p3d": {
              "x": -0.1435,
              "y": 5.4101,
              "z": 8.6586
            }
          },
          {
            "elSymbol": "C",
            "p3d": {
              "x": 1.0373,
              "y": 6.1488,
              "z": 8.6167
            }
          },
          {
            "elSymbol": "H",
            "p3d": {
              "x": 1.3388,
              "y": 6.7891,
              "z": 7.7925
            }
          },
          {
            "elSymbol": "C",
            "p3d": {
              "x": 1.7319,
              "y": 5.9048,
              "z": 9.7532
            }
          },
          {
            "elSymbol": "H",
            "p3d": {
              "x": 2.7093,
              "y": 6.3384,
              "z": 10.0093
            }
          },
          {
            "elSymbol": "C",
            "p3d": {
              "x": 0.9843,
              "y": 5.0017,
              "z": 10.5353
            }
          },
          {
            "elSymbol": "H",
            "p3d": {
              "x": 1.2753,
              "y": 4.5945,
              "z": 11.5061
            }
          },
          {
            "elSymbol": "C",
            "p3d": {
              "x": -0.1556,
              "y": 4.7101,
              "z": 9.8537
            }
          },
          {
            "elSymbol": "H",
            "p3d": {
              "x": -0.9523,
              "y": 4.0313,
              "z": 10.1872
            }
          }
        ],
        "bonds": [
          {
            "atomIds": [
              0,
              1
            ],
            "bo": "SINGLE"
          },
          {
            "atomIds": [
              1,
              2
            ],
            "bo": "SINGLE"
          },
          {
            "atomIds": [
              3,
              1
            ],
            "bo": "DOUBLE"
          },
          {
            "atomIds": [
              4,
              3
            ],
            "bo": "SINGLE"
          },
          {
            "atomIds": [
              5,
              3
            ],
            "bo": "SINGLE"
          },
          {
            "atomIds": [
              6,
              5
            ],
            "bo": "SINGLE"
          },
          {
            "atomIds": [
              7,
              0
            ],
            "bo": "SINGLE"
          },
          {
            "atomIds": [
              8,
              7
            ],
            "bo": "SINGLE"
          },
          {
            "atomIds": [
              5,
              7
            ],
            "bo": "DOUBLE"
          }
        ]
      },
      "vertexId": 379379,
      "buildingBlockId": 9,
      "buildingBlockType": "FRAGMENT",
      "isRCV": false,
      "properties": {
        "ATTACHMENT_POINTS": "1#LAminoPhosphineCycloN:1:SINGLE:-1.3075%5.4354%7.3919 "
      },
      "uniquefyingPropertyKeys": [],
      "allowedMutationTypes": [
        "DELETE",
        "EXTEND",
        "CHANGEBRANCH",
        "CHANGELINK",
        "ADDLINK",
        "DELETELINK",
        "DELETECHAIN"
      ],
      "vertexType": "MolecularFragment"
    }
  ],
  "gEdges": [
    {
      "srcAPID": 247855,
      "trgAPID": 247859,
      "bondType": "SINGLE"
    },
    {
      "srcAPID": 247857,
      "trgAPID": 247860,
      "bondType": "SINGLE"
    },
    {
      "srcAPID": 247858,
      "trgAPID": 247861,
      "bondType": "SINGLE"
    },
    {
      "srcAPID": 247853,
      "trgAPID": 247862,
      "bondType": "SINGLE"
    },
    {
      "srcAPID": 247854,
      "trgAPID": 247864,
      "bondType": "SINGLE"
    },
    {
      "srcAPID": 247863,
      "trgAPID": 247866,
      "bondType": "SINGLE"
    },
    {
      "srcAPID": 247865,
      "trgAPID": 247868,
      "bondType": "SINGLE"
    },
    {
      "srcAPID": 247867,
      "trgAPID": 247870,
      "bondType": "SINGLE"
    },
    {
      "srcAPID": 247869,
      "trgAPID": 247871,
      "bondType": "SINGLE"
    },
    {
      "srcAPID": 247856,
      "trgAPID": 247947,
      "bondType": "SINGLE"
    }
  ],
  "gRings": [
    {
      "vertices": [
        138861,
        138859,
        138858,
        138863,
        138865,
        138867
      ],
      "bndTyp": "SINGLE"
    },
    {
      "vertices": [
        138860,
        138859,
        138858,
        138862,
        138864,
        138866
      ],
      "bndTyp": "SINGLE"
    }
  ],
  "symVertices": [
    {
      "symIds": [
        138860,
        138861
      ]
    },
    {
      "symIds": [
        138862,
        138863
      ]
    },
    {
      "symIds": [
        138864,
        138865
      ]
    },
    {
      "symIds": [
        138866,
        138867
      ]
    }
  ]
}

> <SMILES>
[Pt]12(C#O)[P](N3C([H])=C([H])C([H])=C3[H])(C(C(C([H])([H])C(=O)O1)([H])[H])([H])[H])C(C(C([H])([H])C(=O)O2)([H])[H])([H])[H]

$$$$
