M00008535
  CDK     05032208303D

 37 40  0  0  0  0  0  0  0  0999 V2000
   -2.8524    0.1631    0.7913 Pt  0  0  0  0  0  0  0  0  0  0  0  0
   -4.7778    0.5725    0.7815 C   0  0  0  0  0  0  0  0  0  0  0  0
   -5.8827    0.8498    0.8091 O   0  0  0  0  0  0  0  0  0  0  0  0
   -0.6097   -0.0497    0.9081 P   0  0  0  0  0  0  0  0  0  0  0  0
   -1.6712   -0.3676   -1.6627 H   0  0  0  0  0  0  0  0  0  0  0  0
   -0.5747   -0.2718   -1.7702 C   0  0  0  0  0  0  0  0  0  0  0  0
    0.2716   -0.1178   -0.6949 C   0  0  0  0  0  0  0  0  0  0  0  0
    1.3179   -0.2333   -3.2820 C   0  0  0  0  0  0  0  0  0  0  0  0
    1.6909   -0.0351   -0.8442 C   0  0  0  0  0  0  0  0  0  0  0  0
   -0.0351   -0.3299   -3.0891 C   0  0  0  0  0  0  0  0  0  0  0  0
    2.2101   -0.0875   -2.1696 C   0  0  0  0  0  0  0  0  0  0  0  0
    2.6202    0.0842    0.2381 C   0  0  0  0  0  0  0  0  0  0  0  0
   -0.7207   -0.4522   -3.9287 H   0  0  0  0  0  0  0  0  0  0  0  0
    3.9963   -0.0348   -3.4083 H   0  0  0  0  0  0  0  0  0  0  0  0
    1.7416   -0.2694   -4.2876 H   0  0  0  0  0  0  0  0  0  0  0  0
    3.9724    0.1621    0.0016 C   0  0  0  0  0  0  0  0  0  0  0  0
    2.2712    0.1133    1.2657 H   0  0  0  0  0  0  0  0  0  0  0  0
    4.6758    0.2545    0.8298 H   0  0  0  0  0  0  0  0  0  0  0  0
    4.4838    0.1232   -1.3246 C   0  0  0  0  0  0  0  0  0  0  0  0
    5.5596    0.1915   -1.4797 H   0  0  0  0  0  0  0  0  0  0  0  0
    3.6207   -0.0004   -2.3847 C   0  0  0  0  0  0  0  0  0  0  0  0
   -2.5686   -2.8486    0.8995 S   0  0  0  0  0  0  0  0  0  0  0  0
   -3.4650   -1.6540    1.5320 O   0  0  0  0  0  0  0  0  0  0  0  0
   -2.3049   -2.3967   -0.4663 O   0  0  0  0  0  0  0  0  0  0  0  0
   -3.1380   -4.1313    1.1828 O   0  0  0  0  0  0  0  0  0  0  0  0
   -0.2316   -1.6426    1.8233 C   0  0  0  0  0  0  0  0  0  0  0  0
   -1.0500   -2.6825    1.7874 C   0  0  0  0  0  0  0  0  0  0  0  0
    0.7012   -1.6548    2.3936 H   0  0  0  0  0  0  0  0  0  0  0  0
   -0.7887   -3.5896    2.3584 H   0  0  0  0  0  0  0  0  0  0  0  0
   -1.9700    3.0560    1.1951 S   0  0  0  0  0  0  0  0  0  0  0  0
   -2.0273    1.8945    0.0551 O   0  0  0  0  0  0  0  0  0  0  0  0
   -3.1357    2.7747    2.0224 O   0  0  0  0  0  0  0  0  0  0  0  0
   -1.7357    4.3520    0.6361 O   0  0  0  0  0  0  0  0  0  0  0  0
    0.0540    1.3380    1.9769 C   0  0  0  0  0  0  0  0  0  0  0  0
   -0.5222    2.5269    2.0560 C   0  0  0  0  0  0  0  0  0  0  0  0
    0.9595    1.0928    2.5428 H   0  0  0  0  0  0  0  0  0  0  0  0
   -0.0848    3.3005    2.7060 H   0  0  0  0  0  0  0  0  0  0  0  0
  2  3  3  0  0  0  0
  1  2  1  0  0  0  0
  1  4  1  0  0  0  0
  5  6  1  0  0  0  0
  6  7  1  0  0  0  0
  6 10  2  0  0  0  0
  7  9  2  0  0  0  0
  9 11  1  0  0  0  0
  8 10  1  0  0  0  0
  8 11  2  0  0  0  0
 12  9  1  0  0  0  0
 11 21  1  0  0  0  0
 12 16  2  0  0  0  0
 16 19  1  0  0  0  0
 19 21  2  0  0  0  0
  8 15  1  0  0  0  0
 10 13  1  0  0  0  0
 12 17  1  0  0  0  0
 14 21  1  0  0  0  0
 19 20  1  0  0  0  0
 16 18  1  0  0  0  0
  4  7  1  0  0  0  0
 22 23  1  0  0  0  0
 24 22  2  0  0  0  0
 25 22  2  0  0  0  0
  1 23  1  0  0  0  0
 26 27  2  0  0  0  0
 26 28  1  0  0  0  0
 22 27  1  0  0  0  0
 27 29  1  0  0  0  0
 30 31  1  0  0  0  0
 32 30  2  0  0  0  0
 33 30  2  0  0  0  0
  1 31  1  0  0  0  0
 34 35  2  0  0  0  0
 34 36  1  0  0  0  0
 30 35  1  0  0  0  0
 35 37  1  0  0  0  0
  4 34  1  0  0  0  0
  4 26  1  0  0  0  0
M  END
> <PM6_ENERGY>
-607.618

> <UID>
JEUYCIBLMFLNGO-HCNSJGLSNA-L

> <FITNESS>
1.1395

> <GCODE>
18983

> <GraphENC>
18983 151144_1_0,151145_39_1,151146_78_1,151147_78_1,151148_77_1,151149_77_1,151150_72_1,151151_72_1,151152_1_2,151153_79_1,151154_79_1,151155_1_2,660628_32_1, 151144_2_151145_3_SINGLE_scaff:0_MPhosphine:1,151145_0_151146_0_SINGLE_LPhosphineSubMSym:0_ATplus:0,151145_1_151147_0_SINGLE_LPhosphineSubMSym:0_ATplus:0,151144_1_151148_0_SINGLE_Xlig:0_Xlig:1,151144_0_151149_0_SINGLE_Xlig:0_Xlig:1,151148_1_151150_1_SINGLE_bridge:1_bridge:0,151149_1_151151_1_SINGLE_bridge:1_bridge:0,151151_2_151152_0_SINGLE_SubBridge:0_hyd:1,151150_0_151153_0_SINGLE_bridge:0_ATminus:0,151151_0_151154_0_SINGLE_bridge:0_ATminus:0,151150_2_151155_0_SINGLE_SubBridge:0_hyd:1,151145_2_660628_0_SINGLE_LPhosphineSubM:0_SubArM:1, DENOPTIMRing [vertices=[151147_78_1, 151145_39_1, 151144_1_0, 151148_77_1, 151150_72_1, 151153_79_1]] DENOPTIMRing [vertices=[151146_78_1, 151145_39_1, 151144_1_0, 151149_77_1, 151151_72_1, 151154_79_1]] SymmetricSet [symIds=[151146, 151147]] SymmetricSet [symIds=[151148, 151149]] SymmetricSet [symIds=[151150, 151151]] SymmetricSet [symIds=[151153, 151154]] SymmetricSet [symIds=[151152, 151155]] 

> <GraphJson>
{
  "graphId": 18983,
  "gVertices": [
    {
      "lstAPs": [
        {
          "id": 709917,
          "atomPositionNumber": 0,
          "atomPositionNumberInMol": 0,
          "apClass": {
            "rule": "Xlig",
            "subClass": 0,
            "bndTyp": "SINGLE"
          },
          "dirVec": {
            "x": -2.3339,
            "y": -0.0087,
            "z": 0.8172
          }
        },
        {
          "id": 709918,
          "atomPositionNumber": 0,
          "atomPositionNumberInMol": 0,
          "apClass": {
            "rule": "Xlig",
            "subClass": 0,
            "bndTyp": "SINGLE"
          },
          "dirVec": {
            "x": 2.336,
            "y": -5.0E-4,
            "z": 0.829
          }
        },
        {
          "id": 709919,
          "atomPositionNumber": 0,
          "atomPositionNumberInMol": 0,
          "apClass": {
            "rule": "scaff",
            "subClass": 0,
            "bndTyp": "SINGLE"
          },
          "dirVec": {
            "x": -0.0095,
            "y": 0.0046,
            "z": -1.7113
          }
        }
      ],
      "lstSymAPs": [
        {
          "symIds": [
            0,
            1
          ]
        }
      ],
      "mol": {
        "atoms": [
          {
            "elSymbol": "Pt",
            "p3d": {
              "x": -0.0098,
              "y": 0.0049,
              "z": 0.6289
            }
          },
          {
            "elSymbol": "C",
            "p3d": {
              "x": -6.0E-4,
              "y": 0.0016,
              "z": 2.5609
            }
          },
          {
            "elSymbol": "O",
            "p3d": {
              "x": 0.0025,
              "y": -0.0041,
              "z": 3.6974
            }
          },
          {
            "elSymbol": "Du",
            "p3d": {
              "x": -0.007,
              "y": 1.0013,
              "z": 0.6372
            }
          },
          {
            "elSymbol": "Du",
            "p3d": {
              "x": -0.0014,
              "y": 0.9902,
              "z": 2.5698
            }
          }
        ],
        "bonds": [
          {
            "atomIds": [
              1,
              2
            ],
            "bo": "TRIPLE"
          },
          {
            "atomIds": [
              0,
              1
            ],
            "bo": "SINGLE"
          },
          {
            "atomIds": [
              3,
              0
            ],
            "bo": "SINGLE"
          },
          {
            "atomIds": [
              4,
              1
            ],
            "bo": "SINGLE"
          }
        ]
      },
      "vertexId": 151144,
      "buildingBlockId": 0,
      "buildingBlockType": "SCAFFOLD",
      "isRCV": false,
      "properties": {
        "ATTACHMENT_POINTS": "1#Xlig:0:SINGLE:-2.3339%-0.0087%0.8172,Xlig:0:SINGLE:2.3360%-0.0005%0.8290,scaff:0:SINGLE:-0.0095%0.0046%-1.7113 "
      },
      "uniquefyingPropertyKeys": [],
      "allowedMutationTypes": [
        "DELETE",
        "EXTEND",
        "CHANGEBRANCH",
        "CHANGELINK",
        "ADDLINK",
        "DELETELINK",
        "DELETECHAIN"
      ],
      "vertexType": "MolecularFragment"
    },
    {
      "lstAPs": [
        {
          "id": 709920,
          "atomPositionNumber": 0,
          "atomPositionNumberInMol": 5,
          "apClass": {
            "rule": "LPhosphineSubMSym",
            "subClass": 0,
            "bndTyp": "SINGLE"
          },
          "dirVec": {
            "x": 1.6990896281071761,
            "y": -0.022388909837196012,
            "z": -2.396120418214485
          }
        },
        {
          "id": 709921,
          "atomPositionNumber": 0,
          "atomPositionNumberInMol": 5,
          "apClass": {
            "rule": "LPhosphineSubMSym",
            "subClass": 0,
            "bndTyp": "SINGLE"
          },
          "dirVec": {
            "x": -0.7974463454160869,
            "y": -1.5166607579844005,
            "z": -2.4042461021237207
          }
        },
        {
          "id": 709922,
          "atomPositionNumber": 0,
          "atomPositionNumberInMol": 5,
          "apClass": {
            "rule": "LPhosphineSubM",
            "subClass": 0,
            "bndTyp": "SINGLE"
          },
          "dirVec": {
            "x": -0.7742387081003741,
            "y": 1.5297606753905255,
            "z": -2.410065538873874
          }
        },
        {
          "id": 709923,
          "atomPositionNumber": 0,
          "atomPositionNumberInMol": 5,
          "apClass": {
            "rule": "MPhosphine",
            "subClass": 1,
            "bndTyp": "SINGLE"
          },
          "dirVec": {
            "x": -0.009797986516488381,
            "y": 0.004897986516489378,
            "z": 0.6131934862948514
          }
        }
      ],
      "lstSymAPs": [
        {
          "symIds": [
            0,
            1
          ]
        }
      ],
      "mol": {
        "atoms": [
          {
            "elSymbol": "P",
            "p3d": {
              "x": -0.009502013483511618,
              "y": 0.004602013483510622,
              "z": -1.6955934862948516
            }
          }
        ],
        "bonds": []
      },
      "vertexId": 151145,
      "buildingBlockId": 38,
      "buildingBlockType": "FRAGMENT",
      "isRCV": false,
      "properties": {
        "ATTACHMENT_POINTS": "1#LPhosphineSubMSym:0:SINGLE:1.6991%-0.0224%-2.3961,LPhosphineSubMSym:0:SINGLE:-0.7974%-1.5167%-2.4042,LPhosphineSubM:0:SINGLE:-0.7742%1.5298%-2.4101,MPhosphine:1:SINGLE:-0.0098%0.0049%0.6132 "
      },
      "uniquefyingPropertyKeys": [],
      "allowedMutationTypes": [
        "DELETE",
        "EXTEND",
        "CHANGEBRANCH",
        "CHANGELINK",
        "ADDLINK",
        "DELETELINK",
        "DELETECHAIN"
      ],
      "vertexType": "MolecularFragment"
    },
    {
      "lstAPs": [
        {
          "id": 709924,
          "atomPositionNumber": 0,
          "atomPositionNumberInMol": 6,
          "apClass": {
            "rule": "ATplus",
            "subClass": 0,
            "bndTyp": "ANY"
          },
          "dirVec": {
            "x": 1.6990896281071761,
            "y": -0.022388909837196012,
            "z": -2.396120418214485
          }
        }
      ],
      "lstSymAPs": [],
      "mol": {
        "atoms": [
          {
            "elSymbol": "ATP",
            "p3d": {
              "x": 1.718510555115942,
              "y": -0.02269570564431036,
              "z": -2.4040830478337076
            }
          }
        ],
        "bonds": []
      },
      "vertexId": 151146,
      "buildingBlockId": 77,
      "buildingBlockType": "FRAGMENT",
      "isRCV": true,
      "properties": {
        "ATTACHMENT_POINTS": "1#ATplus:0:ANY:1.6991%-0.0224%-2.3961 "
      },
      "uniquefyingPropertyKeys": [],
      "allowedMutationTypes": [
        "DELETE",
        "EXTEND",
        "CHANGEBRANCH",
        "CHANGELINK",
        "ADDLINK",
        "DELETELINK",
        "DELETECHAIN"
      ],
      "vertexType": "MolecularFragment"
    },
    {
      "lstAPs": [
        {
          "id": 709925,
          "atomPositionNumber": 0,
          "atomPositionNumberInMol": 7,
          "apClass": {
            "rule": "ATplus",
            "subClass": 0,
            "bndTyp": "ANY"
          },
          "dirVec": {
            "x": -0.7974463454160869,
            "y": -1.5166607579844005,
            "z": -2.4042461021237207
          }
        }
      ],
      "lstSymAPs": [],
      "mol": {
        "atoms": [
          {
            "elSymbol": "ATP",
            "p3d": {
              "x": -0.8063679812732594,
              "y": -1.5338855185925786,
              "z": -2.4122699438234907
            }
          }
        ],
        "bonds": []
      },
      "vertexId": 151147,
      "buildingBlockId": 77,
      "buildingBlockType": "FRAGMENT",
      "isRCV": true,
      "properties": {
        "ATTACHMENT_POINTS": "1#ATplus:0:ANY:-0.7974%-1.5167%-2.4042 "
      },
      "uniquefyingPropertyKeys": [],
      "allowedMutationTypes": [
        "DELETE",
        "EXTEND",
        "CHANGEBRANCH",
        "CHANGELINK",
        "ADDLINK",
        "DELETELINK",
        "DELETECHAIN"
      ],
      "vertexType": "MolecularFragment"
    },
    {
      "lstAPs": [
        {
          "id": 709926,
          "atomPositionNumber": 1,
          "atomPositionNumberInMol": 26,
          "apClass": {
            "rule": "Xlig",
            "subClass": 1,
            "bndTyp": "SINGLE"
          },
          "dirVec": {
            "x": 5.983,
            "y": 5.659,
            "z": 10.7602
          }
        },
        {
          "id": 709927,
          "atomPositionNumber": 0,
          "atomPositionNumberInMol": 25,
          "apClass": {
            "rule": "bridge",
            "subClass": 1,
            "bndTyp": "SINGLE"
          },
          "dirVec": {
            "x": 3.1219,
            "y": 7.0322,
            "z": 12.57
          }
        }
      ],
      "lstSymAPs": [],
      "mol": {
        "atoms": [
          {
            "elSymbol": "S",
            "p3d": {
              "x": 3.289,
              "y": 7.1626,
              "z": 10.7898
            }
          },
          {
            "elSymbol": "O",
            "p3d": {
              "x": 4.7494,
              "y": 7.4238,
              "z": 10.5812
            }
          },
          {
            "elSymbol": "O",
            "p3d": {
              "x": 2.8666,
              "y": 5.9079,
              "z": 10.2063
            }
          },
          {
            "elSymbol": "O",
            "p3d": {
              "x": 2.5225,
              "y": 8.319,
              "z": 10.3914
            }
          }
        ],
        "bonds": [
          {
            "atomIds": [
              0,
              1
            ],
            "bo": "SINGLE"
          },
          {
            "atomIds": [
              2,
              0
            ],
            "bo": "DOUBLE"
          },
          {
            "atomIds": [
              3,
              0
            ],
            "bo": "DOUBLE"
          }
        ]
      },
      "vertexId": 151148,
      "buildingBlockId": 76,
      "buildingBlockType": "FRAGMENT",
      "isRCV": false,
      "properties": {
        "ATTACHMENT_POINTS": "1#bridge:1:SINGLE:3.1219%7.0322%12.5700 2#Xlig:1:SINGLE:5.9830%5.6590%10.7602 "
      },
      "uniquefyingPropertyKeys": [],
      "allowedMutationTypes": [
        "DELETE",
        "EXTEND",
        "CHANGEBRANCH",
        "CHANGELINK",
        "ADDLINK",
        "DELETELINK",
        "DELETECHAIN"
      ],
      "vertexType": "MolecularFragment"
    },
    {
      "lstAPs": [
        {
          "id": 709928,
          "atomPositionNumber": 1,
          "atomPositionNumberInMol": 35,
          "apClass": {
            "rule": "Xlig",
            "subClass": 1,
            "bndTyp": "SINGLE"
          },
          "dirVec": {
            "x": 5.983,
            "y": 5.659,
            "z": 10.7602
          }
        },
        {
          "id": 709929,
          "atomPositionNumber": 0,
          "atomPositionNumberInMol": 34,
          "apClass": {
            "rule": "bridge",
            "subClass": 1,
            "bndTyp": "SINGLE"
          },
          "dirVec": {
            "x": 3.1219,
            "y": 7.0322,
            "z": 12.57
          }
        }
      ],
      "lstSymAPs": [],
      "mol": {
        "atoms": [
          {
            "elSymbol": "S",
            "p3d": {
              "x": 3.289,
              "y": 7.1626,
              "z": 10.7898
            }
          },
          {
            "elSymbol": "O",
            "p3d": {
              "x": 4.7494,
              "y": 7.4238,
              "z": 10.5812
            }
          },
          {
            "elSymbol": "O",
            "p3d": {
              "x": 2.8666,
              "y": 5.9079,
              "z": 10.2063
            }
          },
          {
            "elSymbol": "O",
            "p3d": {
              "x": 2.5225,
              "y": 8.319,
              "z": 10.3914
            }
          }
        ],
        "bonds": [
          {
            "atomIds": [
              0,
              1
            ],
            "bo": "SINGLE"
          },
          {
            "atomIds": [
              2,
              0
            ],
            "bo": "DOUBLE"
          },
          {
            "atomIds": [
              3,
              0
            ],
            "bo": "DOUBLE"
          }
        ]
      },
      "vertexId": 151149,
      "buildingBlockId": 76,
      "buildingBlockType": "FRAGMENT",
      "isRCV": false,
      "properties": {
        "ATTACHMENT_POINTS": "1#bridge:1:SINGLE:3.1219%7.0322%12.5700 2#Xlig:1:SINGLE:5.9830%5.6590%10.7602 "
      },
      "uniquefyingPropertyKeys": [],
      "allowedMutationTypes": [
        "DELETE",
        "EXTEND",
        "CHANGEBRANCH",
        "CHANGELINK",
        "ADDLINK",
        "DELETELINK",
        "DELETECHAIN"
      ],
      "vertexType": "MolecularFragment"
    },
    {
      "lstAPs": [
        {
          "id": 709930,
          "atomPositionNumber": 0,
          "atomPositionNumberInMol": 29,
          "apClass": {
            "rule": "bridge",
            "subClass": 0,
            "bndTyp": "SINGLE"
          },
          "dirVec": {
            "x": 1.9789000000000003,
            "y": 0.17000000000000004,
            "z": 0.0
          }
        },
        {
          "id": 709931,
          "atomPositionNumber": 1,
          "atomPositionNumberInMol": 30,
          "apClass": {
            "rule": "bridge",
            "subClass": 0,
            "bndTyp": "SINGLE"
          },
          "dirVec": {
            "x": -0.3006,
            "y": -1.4852,
            "z": 0.0
          }
        },
        {
          "id": 709932,
          "atomPositionNumber": 1,
          "atomPositionNumberInMol": 30,
          "apClass": {
            "rule": "SubBridge",
            "subClass": 0,
            "bndTyp": "SINGLE"
          },
          "dirVec": {
            "x": -1.8343,
            "y": 0.6268,
            "z": 0.0
          }
        }
      ],
      "lstSymAPs": [],
      "mol": {
        "atoms": [
          {
            "elSymbol": "C",
            "p3d": {
              "x": 0.6023,
              "y": 0.7833,
              "z": 0.0
            }
          },
          {
            "elSymbol": "C",
            "p3d": {
              "x": -0.4578,
              "y": 0.0135,
              "z": 0.0
            }
          },
          {
            "elSymbol": "H",
            "p3d": {
              "x": 0.4897,
              "y": 1.8574,
              "z": 0.0
            }
          }
        ],
        "bonds": [
          {
            "atomIds": [
              0,
              1
            ],
            "bo": "DOUBLE"
          },
          {
            "atomIds": [
              0,
              2
            ],
            "bo": "SINGLE"
          }
        ]
      },
      "vertexId": 151150,
      "buildingBlockId": 71,
      "buildingBlockType": "FRAGMENT",
      "isRCV": false,
      "properties": {
        "ATTACHMENT_POINTS": "1#bridge:0:SINGLE:1.9789%0.1700%0.0000 2#bridge:0:SINGLE:-0.3006%-1.4852%0.0000,SubBridge:0:SINGLE:-1.8343%0.6268%0.0000 "
      },
      "uniquefyingPropertyKeys": [],
      "allowedMutationTypes": [
        "DELETE",
        "EXTEND",
        "CHANGEBRANCH",
        "CHANGELINK",
        "ADDLINK",
        "DELETELINK",
        "DELETECHAIN"
      ],
      "vertexType": "MolecularFragment"
    },
    {
      "lstAPs": [
        {
          "id": 709933,
          "atomPositionNumber": 0,
          "atomPositionNumberInMol": 38,
          "apClass": {
            "rule": "bridge",
            "subClass": 0,
            "bndTyp": "SINGLE"
          },
          "dirVec": {
            "x": 1.9789000000000003,
            "y": 0.17000000000000004,
            "z": 0.0
          }
        },
        {
          "id": 709934,
          "atomPositionNumber": 1,
          "atomPositionNumberInMol": 39,
          "apClass": {
            "rule": "bridge",
            "subClass": 0,
            "bndTyp": "SINGLE"
          },
          "dirVec": {
            "x": -0.3006,
            "y": -1.4852,
            "z": 0.0
          }
        },
        {
          "id": 709935,
          "atomPositionNumber": 1,
          "atomPositionNumberInMol": 39,
          "apClass": {
            "rule": "SubBridge",
            "subClass": 0,
            "bndTyp": "SINGLE"
          },
          "dirVec": {
            "x": -1.8343,
            "y": 0.6268,
            "z": 0.0
          }
        }
      ],
      "lstSymAPs": [],
      "mol": {
        "atoms": [
          {
            "elSymbol": "C",
            "p3d": {
              "x": 0.6023,
              "y": 0.7833,
              "z": 0.0
            }
          },
          {
            "elSymbol": "C",
            "p3d": {
              "x": -0.4578,
              "y": 0.0135,
              "z": 0.0
            }
          },
          {
            "elSymbol": "H",
            "p3d": {
              "x": 0.4897,
              "y": 1.8574,
              "z": 0.0
            }
          }
        ],
        "bonds": [
          {
            "atomIds": [
              0,
              1
            ],
            "bo": "DOUBLE"
          },
          {
            "atomIds": [
              0,
              2
            ],
            "bo": "SINGLE"
          }
        ]
      },
      "vertexId": 151151,
      "buildingBlockId": 71,
      "buildingBlockType": "FRAGMENT",
      "isRCV": false,
      "properties": {
        "ATTACHMENT_POINTS": "1#bridge:0:SINGLE:1.9789%0.1700%0.0000 2#bridge:0:SINGLE:-0.3006%-1.4852%0.0000,SubBridge:0:SINGLE:-1.8343%0.6268%0.0000 "
      },
      "uniquefyingPropertyKeys": [],
      "allowedMutationTypes": [
        "DELETE",
        "EXTEND",
        "CHANGEBRANCH",
        "CHANGELINK",
        "ADDLINK",
        "DELETELINK",
        "DELETECHAIN"
      ],
      "vertexType": "MolecularFragment"
    },
    {
      "lstAPs": [
        {
          "id": 709936,
          "atomPositionNumber": 0,
          "atomPositionNumberInMol": 41,
          "apClass": {
            "rule": "hyd",
            "subClass": 1,
            "bndTyp": "SINGLE"
          },
          "dirVec": {
            "x": 0.4589,
            "y": -1.751,
            "z": 0.3869
          }
        }
      ],
      "lstSymAPs": [],
      "mol": {
        "atoms": [
          {
            "elSymbol": "H",
            "p3d": {
              "x": 0.1925,
              "y": -2.5024,
              "z": 1.1483
            }
          }
        ],
        "bonds": []
      },
      "vertexId": 151152,
      "buildingBlockId": 0,
      "buildingBlockType": "CAP",
      "isRCV": false,
      "properties": {
        "ATTACHMENT_POINTS": "1#hyd:1:SINGLE:0.4589%-1.7510%0.3869 "
      },
      "uniquefyingPropertyKeys": [],
      "allowedMutationTypes": [
        "DELETE",
        "EXTEND",
        "CHANGEBRANCH",
        "CHANGELINK",
        "ADDLINK",
        "DELETELINK",
        "DELETECHAIN"
      ],
      "vertexType": "MolecularFragment"
    },
    {
      "lstAPs": [
        {
          "id": 709937,
          "atomPositionNumber": 0,
          "atomPositionNumberInMol": 32,
          "apClass": {
            "rule": "ATminus",
            "subClass": 0,
            "bndTyp": "ANY"
          },
          "dirVec": {
            "x": 0.0109,
            "y": -0.0071,
            "z": 0.0026
          }
        }
      ],
      "lstSymAPs": [],
      "mol": {
        "atoms": [
          {
            "elSymbol": "ATM",
            "p3d": {
              "x": -0.0096,
              "y": 0.0045,
              "z": -0.0011
            }
          }
        ],
        "bonds": []
      },
      "vertexId": 151153,
      "buildingBlockId": 78,
      "buildingBlockType": "FRAGMENT",
      "isRCV": true,
      "properties": {
        "ATTACHMENT_POINTS": "1#ATminus:0:ANY:0.0109%-0.0071%0.0026 "
      },
      "uniquefyingPropertyKeys": [],
      "allowedMutationTypes": [
        "DELETE",
        "EXTEND",
        "CHANGEBRANCH",
        "CHANGELINK",
        "ADDLINK",
        "DELETELINK",
        "DELETECHAIN"
      ],
      "vertexType": "MolecularFragment"
    },
    {
      "lstAPs": [
        {
          "id": 709938,
          "atomPositionNumber": 0,
          "atomPositionNumberInMol": 42,
          "apClass": {
            "rule": "ATminus",
            "subClass": 0,
            "bndTyp": "ANY"
          },
          "dirVec": {
            "x": 0.0109,
            "y": -0.0071,
            "z": 0.0026
          }
        }
      ],
      "lstSymAPs": [],
      "mol": {
        "atoms": [
          {
            "elSymbol": "ATM",
            "p3d": {
              "x": -0.0096,
              "y": 0.0045,
              "z": -0.0011
            }
          }
        ],
        "bonds": []
      },
      "vertexId": 151154,
      "buildingBlockId": 78,
      "buildingBlockType": "FRAGMENT",
      "isRCV": true,
      "properties": {
        "ATTACHMENT_POINTS": "1#ATminus:0:ANY:0.0109%-0.0071%0.0026 "
      },
      "uniquefyingPropertyKeys": [],
      "allowedMutationTypes": [
        "DELETE",
        "EXTEND",
        "CHANGEBRANCH",
        "CHANGELINK",
        "ADDLINK",
        "DELETELINK",
        "DELETECHAIN"
      ],
      "vertexType": "MolecularFragment"
    },
    {
      "lstAPs": [
        {
          "id": 709939,
          "atomPositionNumber": 0,
          "atomPositionNumberInMol": 33,
          "apClass": {
            "rule": "hyd",
            "subClass": 1,
            "bndTyp": "SINGLE"
          },
          "dirVec": {
            "x": 0.4589,
            "y": -1.751,
            "z": 0.3869
          }
        }
      ],
      "lstSymAPs": [],
      "mol": {
        "atoms": [
          {
            "elSymbol": "H",
            "p3d": {
              "x": 0.1925,
              "y": -2.5024,
              "z": 1.1483
            }
          }
        ],
        "bonds": []
      },
      "vertexId": 151155,
      "buildingBlockId": 0,
      "buildingBlockType": "CAP",
      "isRCV": false,
      "properties": {
        "ATTACHMENT_POINTS": "1#hyd:1:SINGLE:0.4589%-1.7510%0.3869 "
      },
      "uniquefyingPropertyKeys": [],
      "allowedMutationTypes": [
        "DELETE",
        "EXTEND",
        "CHANGEBRANCH",
        "CHANGELINK",
        "ADDLINK",
        "DELETELINK",
        "DELETECHAIN"
      ],
      "vertexType": "MolecularFragment"
    },
    {
      "lstAPs": [
        {
          "id": 709988,
          "atomPositionNumber": 2,
          "atomPositionNumberInMol": 10,
          "apClass": {
            "rule": "SubArM",
            "subClass": 1,
            "bndTyp": "SINGLE"
          },
          "dirVec": {
            "x": 0.2839,
            "y": 0.3907,
            "z": -0.6271
          }
        }
      ],
      "lstSymAPs": [],
      "mol": {
        "atoms": [
          {
            "elSymbol": "H",
            "p3d": {
              "x": 1.8079,
              "y": 2.6521,
              "z": -0.6457
            }
          },
          {
            "elSymbol": "C",
            "p3d": {
              "x": 2.3292,
              "y": 1.8028,
              "z": -1.1346
            }
          },
          {
            "elSymbol": "C",
            "p3d": {
              "x": 1.6928,
              "y": 0.5701,
              "z": -1.2214
            }
          },
          {
            "elSymbol": "C",
            "p3d": {
              "x": 4.26,
              "y": 0.9161,
              "z": -2.2564
            }
          },
          {
            "elSymbol": "C",
            "p3d": {
              "x": 2.3547,
              "y": -0.5116,
              "z": -1.8205
            }
          },
          {
            "elSymbol": "C",
            "p3d": {
              "x": 3.6118,
              "y": 1.9867,
              "z": -1.654
            }
          },
          {
            "elSymbol": "C",
            "p3d": {
              "x": 3.6519,
              "y": -0.333,
              "z": -2.339
            }
          },
          {
            "elSymbol": "C",
            "p3d": {
              "x": 1.7318,
              "y": -1.7781,
              "z": -1.8989
            }
          },
          {
            "elSymbol": "H",
            "p3d": {
              "x": 4.0936,
              "y": 2.9609,
              "z": -1.5808
            }
          },
          {
            "elSymbol": "H",
            "p3d": {
              "x": 5.3077,
              "y": -1.3005,
              "z": -3.3639
            }
          },
          {
            "elSymbol": "H",
            "p3d": {
              "x": 5.2705,
              "y": 1.0583,
              "z": -2.6578
            }
          },
          {
            "elSymbol": "C",
            "p3d": {
              "x": 2.3998,
              "y": -2.8526,
              "z": -2.5007
            }
          },
          {
            "elSymbol": "H",
            "p3d": {
              "x": 0.724,
              "y": -1.9306,
              "z": -1.4908
            }
          },
          {
            "elSymbol": "H",
            "p3d": {
              "x": 1.9155,
              "y": -3.8304,
              "z": -2.576
            }
          },
          {
            "elSymbol": "C",
            "p3d": {
              "x": 3.684,
              "y": -2.6697,
              "z": -3.0355
            }
          },
          {
            "elSymbol": "H",
            "p3d": {
              "x": 4.2028,
              "y": -3.5195,
              "z": -3.4955
            }
          },
          {
            "elSymbol": "C",
            "p3d": {
              "x": 4.3092,
              "y": -1.4197,
              "z": -2.9387
            }
          }
        ],
        "bonds": [
          {
            "atomIds": [
              0,
              1
            ],
            "bo": "SINGLE"
          },
          {
            "atomIds": [
              1,
              2
            ],
            "bo": "SINGLE"
          },
          {
            "atomIds": [
              1,
              5
            ],
            "bo": "DOUBLE"
          },
          {
            "atomIds": [
              2,
              4
            ],
            "bo": "DOUBLE"
          },
          {
            "atomIds": [
              4,
              6
            ],
            "bo": "SINGLE"
          },
          {
            "atomIds": [
              3,
              5
            ],
            "bo": "SINGLE"
          },
          {
            "atomIds": [
              3,
              6
            ],
            "bo": "DOUBLE"
          },
          {
            "atomIds": [
              7,
              4
            ],
            "bo": "SINGLE"
          },
          {
            "atomIds": [
              6,
              16
            ],
            "bo": "SINGLE"
          },
          {
            "atomIds": [
              7,
              11
            ],
            "bo": "DOUBLE"
          },
          {
            "atomIds": [
              11,
              14
            ],
            "bo": "SINGLE"
          },
          {
            "atomIds": [
              14,
              16
            ],
            "bo": "DOUBLE"
          },
          {
            "atomIds": [
              3,
              10
            ],
            "bo": "SINGLE"
          },
          {
            "atomIds": [
              5,
              8
            ],
            "bo": "SINGLE"
          },
          {
            "atomIds": [
              7,
              12
            ],
            "bo": "SINGLE"
          },
          {
            "atomIds": [
              9,
              16
            ],
            "bo": "SINGLE"
          },
          {
            "atomIds": [
              14,
              15
            ],
            "bo": "SINGLE"
          },
          {
            "atomIds": [
              11,
              13
            ],
            "bo": "SINGLE"
          }
        ]
      },
      "vertexId": 660628,
      "buildingBlockId": 31,
      "buildingBlockType": "FRAGMENT",
      "isRCV": false,
      "properties": {
        "ATTACHMENT_POINTS": "3#SubArM:1:SINGLE:0.2839%0.3907%-0.6271 "
      },
      "uniquefyingPropertyKeys": [],
      "allowedMutationTypes": [
        "DELETE",
        "EXTEND",
        "CHANGEBRANCH",
        "CHANGELINK",
        "ADDLINK",
        "DELETELINK",
        "DELETECHAIN"
      ],
      "vertexType": "MolecularFragment"
    }
  ],
  "gEdges": [
    {
      "srcAPID": 709919,
      "trgAPID": 709923,
      "bondType": "SINGLE"
    },
    {
      "srcAPID": 709920,
      "trgAPID": 709924,
      "bondType": "SINGLE"
    },
    {
      "srcAPID": 709921,
      "trgAPID": 709925,
      "bondType": "SINGLE"
    },
    {
      "srcAPID": 709918,
      "trgAPID": 709926,
      "bondType": "SINGLE"
    },
    {
      "srcAPID": 709917,
      "trgAPID": 709928,
      "bondType": "SINGLE"
    },
    {
      "srcAPID": 709927,
      "trgAPID": 709931,
      "bondType": "SINGLE"
    },
    {
      "srcAPID": 709929,
      "trgAPID": 709934,
      "bondType": "SINGLE"
    },
    {
      "srcAPID": 709935,
      "trgAPID": 709936,
      "bondType": "SINGLE"
    },
    {
      "srcAPID": 709930,
      "trgAPID": 709937,
      "bondType": "SINGLE"
    },
    {
      "srcAPID": 709933,
      "trgAPID": 709938,
      "bondType": "SINGLE"
    },
    {
      "srcAPID": 709932,
      "trgAPID": 709939,
      "bondType": "SINGLE"
    },
    {
      "srcAPID": 709922,
      "trgAPID": 709988,
      "bondType": "SINGLE"
    }
  ],
  "gRings": [
    {
      "vertices": [
        151147,
        151145,
        151144,
        151148,
        151150,
        151153
      ],
      "bndTyp": "SINGLE"
    },
    {
      "vertices": [
        151146,
        151145,
        151144,
        151149,
        151151,
        151154
      ],
      "bndTyp": "SINGLE"
    }
  ],
  "symVertices": [
    {
      "symIds": [
        151146,
        151147
      ]
    },
    {
      "symIds": [
        151148,
        151149
      ]
    },
    {
      "symIds": [
        151150,
        151151
      ]
    },
    {
      "symIds": [
        151153,
        151154
      ]
    },
    {
      "symIds": [
        151152,
        151155
      ]
    }
  ]
}

> <SMILES>
[Pt]12(C#O)[P](C=3C([H])=C(C(=C4C3C(=C(C(=C4[H])[H])[H])[H])[H])[H])(C(=C(S(O1)(=O)=O)[H])[H])C(=C(S(O2)(=O)=O)[H])[H]

$$$$
