M00018828
  CDK     05032209173D

 42 46  0  0  0  0  0  0  0  0999 V2000
   -2.6567   -0.0157   -0.6684 Pt  0  0  0  0  0  0  0  0  0  0  0  0
   -4.6026    0.0621   -0.5318 C   0  0  0  0  0  0  0  0  0  0  0  0
   -5.7366    0.1092   -0.4108 O   0  0  0  0  0  0  0  0  0  0  0  0
   -0.3846   -0.0864   -0.5838 P   0  0  0  0  0  0  0  0  0  0  0  0
    0.0032    1.2288    0.7213 C   0  0  0  0  0  0  0  0  0  0  0  0
    0.4567    0.5643    1.7939 C   0  0  0  0  0  0  0  0  0  0  0  0
    0.8890    1.0035    3.1540 C   0  0  0  0  0  0  0  0  0  0  0  0
    0.0606    1.5351    3.6686 H   0  0  0  0  0  0  0  0  0  0  0  0
    1.7300    1.7189    3.1062 H   0  0  0  0  0  0  0  0  0  0  0  0
    1.2792   -0.2843    3.9193 C   0  0  0  0  0  0  0  0  0  0  0  0
    0.7612   -0.3310    4.8927 H   0  0  0  0  0  0  0  0  0  0  0  0
    2.3601   -0.2912    4.1407 H   0  0  0  0  0  0  0  0  0  0  0  0
    0.8976   -1.4985    3.0370 C   0  0  0  0  0  0  0  0  0  0  0  0
    1.7500   -2.1922    2.9126 H   0  0  0  0  0  0  0  0  0  0  0  0
    0.0857   -2.0903    3.5058 H   0  0  0  0  0  0  0  0  0  0  0  0
    0.4543   -0.9360    1.7264 C   0  0  0  0  0  0  0  0  0  0  0  0
   -0.0036   -1.5079    0.6026 C   0  0  0  0  0  0  0  0  0  0  0  0
    0.8189    0.1412   -1.9443 C   0  0  0  0  0  0  0  0  0  0  0  0
    2.6413    0.5075   -4.0098 C   0  0  0  0  0  0  0  0  0  0  0  0
    2.1191    0.5640   -1.6429 C   0  0  0  0  0  0  0  0  0  0  0  0
    0.4179   -0.1055   -3.2573 C   0  0  0  0  0  0  0  0  0  0  0  0
    1.3435    0.0828   -4.2953 C   0  0  0  0  0  0  0  0  0  0  0  0
    3.0308    0.7475   -2.6842 C   0  0  0  0  0  0  0  0  0  0  0  0
    2.4429    0.7573   -0.6183 H   0  0  0  0  0  0  0  0  0  0  0  0
   -0.5955   -0.4601   -3.4979 H   0  0  0  0  0  0  0  0  0  0  0  0
    1.0424   -0.1075   -5.3252 H   0  0  0  0  0  0  0  0  0  0  0  0
    4.0457    1.0771   -2.4692 H   0  0  0  0  0  0  0  0  0  0  0  0
    3.3579    0.6536   -4.8187 H   0  0  0  0  0  0  0  0  0  0  0  0
   -1.6187   -2.9116   -0.9758 S   0  0  0  0  0  0  0  0  0  0  0  0
   -2.8563   -2.0825   -0.3865 O   0  0  0  0  0  0  0  0  0  0  0  0
   -1.0617   -1.9212   -1.9470 O   0  0  0  0  0  0  0  0  0  0  0  0
   -1.9638   -4.2456   -1.3527 O   0  0  0  0  0  0  0  0  0  0  0  0
   -0.3820   -2.9014    0.3051 C   0  0  0  0  0  0  0  0  0  0  0  0
    0.5112   -3.4953    0.0002 H   0  0  0  0  0  0  0  0  0  0  0  0
   -0.7320   -3.4127    1.2311 H   0  0  0  0  0  0  0  0  0  0  0  0
   -2.1230    2.8357    0.4390 S   0  0  0  0  0  0  0  0  0  0  0  0
   -2.4997    2.0086   -0.9191 O   0  0  0  0  0  0  0  0  0  0  0  0
   -2.7492    2.0786    1.5092 O   0  0  0  0  0  0  0  0  0  0  0  0
   -2.4028    4.2310    0.2515 O   0  0  0  0  0  0  0  0  0  0  0  0
   -0.3412    2.6384    0.5117 C   0  0  0  0  0  0  0  0  0  0  0  0
    0.0808    3.2775    1.3193 H   0  0  0  0  0  0  0  0  0  0  0  0
    0.1305    3.0543   -0.4093 H   0  0  0  0  0  0  0  0  0  0  0  0
  2  3  3  0  0  0  0
  1  2  1  0  0  0  0
  5  4  1  0  0  0  0
  6  5  2  0  0  0  0
  7  6  1  0  0  0  0
  8  7  1  0  0  0  0
  9  7  1  0  0  0  0
 10  7  1  0  0  0  0
 11 10  1  0  0  0  0
 12 10  1  0  0  0  0
 13 10  1  0  0  0  0
 13 16  1  0  0  0  0
 14 13  1  0  0  0  0
 15 13  1  0  0  0  0
 16  6  1  0  0  0  0
 16 17  2  0  0  0  0
 17  4  1  0  0  0  0
  1  4  1  0  0  0  0
 18 21  1  0  0  0  0
 21 22  2  0  0  0  0
 19 22  1  0  0  0  0
 19 23  2  0  0  0  0
 20 23  1  0  0  0  0
 18 20  2  0  0  0  0
 22 26  1  0  0  0  0
 23 27  1  0  0  0  0
 19 28  1  0  0  0  0
 20 24  1  0  0  0  0
 21 25  1  0  0  0  0
  4 18  1  0  0  0  0
 29 30  1  0  0  0  0
 31 29  2  0  0  0  0
 32 29  2  0  0  0  0
  1 30  1  0  0  0  0
 33 34  1  0  0  0  0
 33 35  1  0  0  0  0
 29 33  1  0  0  0  0
 36 37  1  0  0  0  0
 38 36  2  0  0  0  0
 39 36  2  0  0  0  0
  1 37  1  0  0  0  0
 40 41  1  0  0  0  0
 40 42  1  0  0  0  0
 36 40  1  0  0  0  0
 17 33  1  0  0  0  0
  5 40  1  0  0  0  0
M  END
> <PM6_ENERGY>
-817.563

> <UID>
DGABKZAEGJMLHJ-ISWOYFSHNA-L

> <FITNESS>
1.14141

> <GCODE>
29908

> <GraphENC>
29908 186636_1_0,186637_47_1,186638_78_1,186639_78_1,186640_77_1,186641_77_1,186642_67_1,186643_67_1,186644_79_1,186645_79_1,1038411_29_1, 186636_2_186637_1_SINGLE_scaff:0_MPhosphole:1,186637_3_186638_0_SINGLE_LPhospholeSubAlpha:0_ATplus:0,186637_2_186639_0_SINGLE_LPhospholeSubAlpha:0_ATplus:0,186636_1_186640_0_SINGLE_Xlig:0_Xlig:1,186636_0_186641_0_SINGLE_Xlig:0_Xlig:1,186640_1_186642_1_SINGLE_bridge:1_bridge:0,186641_1_186643_1_SINGLE_bridge:1_bridge:0,186642_0_186644_0_SINGLE_bridge:0_ATminus:0,186643_0_186645_0_SINGLE_bridge:0_ATminus:0,186637_0_1038411_0_SINGLE_LPhospholeSubR:0_SubArS:1, DENOPTIMRing [vertices=[186638_78_1, 186637_47_1, 186636_1_0, 186640_77_1, 186642_67_1, 186644_79_1]] DENOPTIMRing [vertices=[186639_78_1, 186637_47_1, 186636_1_0, 186641_77_1, 186643_67_1, 186645_79_1]] SymmetricSet [symIds=[186638, 186639]] SymmetricSet [symIds=[186640, 186641]] SymmetricSet [symIds=[186642, 186643]] SymmetricSet [symIds=[186644, 186645]] 

> <GraphJson>
{
  "graphId": 29908,
  "gVertices": [
    {
      "lstAPs": [
        {
          "id": 1285821,
          "atomPositionNumber": 0,
          "atomPositionNumberInMol": 0,
          "apClass": {
            "rule": "Xlig",
            "subClass": 0,
            "bndTyp": "SINGLE"
          },
          "dirVec": {
            "x": -2.3339,
            "y": -0.0087,
            "z": 0.8172
          }
        },
        {
          "id": 1285822,
          "atomPositionNumber": 0,
          "atomPositionNumberInMol": 0,
          "apClass": {
            "rule": "Xlig",
            "subClass": 0,
            "bndTyp": "SINGLE"
          },
          "dirVec": {
            "x": 2.336,
            "y": -5.0E-4,
            "z": 0.829
          }
        },
        {
          "id": 1285823,
          "atomPositionNumber": 0,
          "atomPositionNumberInMol": 0,
          "apClass": {
            "rule": "scaff",
            "subClass": 0,
            "bndTyp": "SINGLE"
          },
          "dirVec": {
            "x": -0.0095,
            "y": 0.0046,
            "z": -1.7113
          }
        }
      ],
      "lstSymAPs": [
        {
          "symIds": [
            0,
            1
          ]
        }
      ],
      "mol": {
        "atoms": [
          {
            "elSymbol": "Pt",
            "p3d": {
              "x": -0.0098,
              "y": 0.0049,
              "z": 0.6289
            }
          },
          {
            "elSymbol": "C",
            "p3d": {
              "x": -6.0E-4,
              "y": 0.0016,
              "z": 2.5609
            }
          },
          {
            "elSymbol": "O",
            "p3d": {
              "x": 0.0025,
              "y": -0.0041,
              "z": 3.6974
            }
          },
          {
            "elSymbol": "Du",
            "p3d": {
              "x": -0.007,
              "y": 1.0013,
              "z": 0.6372
            }
          },
          {
            "elSymbol": "Du",
            "p3d": {
              "x": -0.0014,
              "y": 0.9902,
              "z": 2.5698
            }
          }
        ],
        "bonds": [
          {
            "atomIds": [
              1,
              2
            ],
            "bo": "TRIPLE"
          },
          {
            "atomIds": [
              0,
              1
            ],
            "bo": "SINGLE"
          },
          {
            "atomIds": [
              3,
              0
            ],
            "bo": "SINGLE"
          },
          {
            "atomIds": [
              4,
              1
            ],
            "bo": "SINGLE"
          }
        ]
      },
      "vertexId": 186636,
      "buildingBlockId": 0,
      "buildingBlockType": "SCAFFOLD",
      "isRCV": false,
      "properties": {
        "ATTACHMENT_POINTS": "1#Xlig:0:SINGLE:-2.3339%-0.0087%0.8172,Xlig:0:SINGLE:2.3360%-0.0005%0.8290,scaff:0:SINGLE:-0.0095%0.0046%-1.7113 "
      },
      "uniquefyingPropertyKeys": [],
      "allowedMutationTypes": [
        "DELETE",
        "EXTEND",
        "CHANGEBRANCH",
        "CHANGELINK",
        "ADDLINK",
        "DELETELINK",
        "DELETECHAIN"
      ],
      "vertexType": "MolecularFragment"
    },
    {
      "lstAPs": [
        {
          "id": 1285824,
          "atomPositionNumber": 0,
          "atomPositionNumberInMol": 5,
          "apClass": {
            "rule": "LPhospholeSubR",
            "subClass": 0,
            "bndTyp": "SINGLE"
          },
          "dirVec": {
            "x": -1.6223792475758159,
            "y": 0.14132477366600837,
            "z": -2.568290516038104
          }
        },
        {
          "id": 1285825,
          "atomPositionNumber": 0,
          "atomPositionNumberInMol": 5,
          "apClass": {
            "rule": "MPhosphole",
            "subClass": 1,
            "bndTyp": "SINGLE"
          },
          "dirVec": {
            "x": -0.009800513108591112,
            "y": 0.004900513108591157,
            "z": 0.632902589083087
          }
        },
        {
          "id": 1285826,
          "atomPositionNumber": 1,
          "atomPositionNumberInMol": 6,
          "apClass": {
            "rule": "LPhospholeSubAlpha",
            "subClass": 0,
            "bndTyp": "SINGLE"
          },
          "dirVec": {
            "x": 1.1952099210498432,
            "y": 2.669985792653061,
            "z": -2.3085490332157885
          }
        },
        {
          "id": 1285827,
          "atomPositionNumber": 13,
          "atomPositionNumberInMol": 18,
          "apClass": {
            "rule": "LPhospholeSubAlpha",
            "subClass": 0,
            "bndTyp": "SINGLE"
          },
          "dirVec": {
            "x": 0.4502422566953904,
            "y": -2.9393437322817815,
            "z": -2.274792259665105
          }
        }
      ],
      "lstSymAPs": [
        {
          "symIds": [
            2,
            3
          ]
        }
      ],
      "mol": {
        "atoms": [
          {
            "elSymbol": "P",
            "p3d": {
              "x": -0.009499486891408886,
              "y": 0.004599486891408842,
              "z": -1.7153025890830875
            }
          },
          {
            "elSymbol": "C",
            "p3d": {
              "x": 1.0783338161736449,
              "y": 1.178000381546128,
              "z": -2.5560026635246693
            }
          },
          {
            "elSymbol": "C",
            "p3d": {
              "x": 1.8458852836802766,
              "y": 0.46320912540938514,
              "z": -3.4082000202906215
            }
          },
          {
            "elSymbol": "C",
            "p3d": {
              "x": 2.954333768463528,
              "y": 0.824759678550019,
              "z": -4.369950073113815
            }
          },
          {
            "elSymbol": "H",
            "p3d": {
              "x": 3.87757216603835,
              "y": 1.0568856210794946,
              "z": -3.8389821003995683
            }
          },
          {
            "elSymbol": "H",
            "p3d": {
              "x": 2.6695959919847176,
              "y": 1.6799245447101132,
              "z": -4.984360506237548
            }
          },
          {
            "elSymbol": "C",
            "p3d": {
              "x": 3.0992181734513657,
              "y": -0.44366371249945075,
              "z": -5.216608617173867
            }
          },
          {
            "elSymbol": "H",
            "p3d": {
              "x": 4.148808172636624,
              "y": -0.5943341667214755,
              "z": -5.481575799735818
            }
          },
          {
            "elSymbol": "H",
            "p3d": {
              "x": 2.5123560986654963,
              "y": -0.3536916988386168,
              "z": -6.143449165453795
            }
          },
          {
            "elSymbol": "C",
            "p3d": {
              "x": 2.5757596245276853,
              "y": -1.6272292684271492,
              "z": -4.37343739946048
            }
          },
          {
            "elSymbol": "H",
            "p3d": {
              "x": 2.067568958121175,
              "y": -2.3526812231615017,
              "z": -4.994721076977774
            }
          },
          {
            "elSymbol": "H",
            "p3d": {
              "x": 3.4017618724916288,
              "y": -2.12648343394326,
              "z": -3.869328666573094
            }
          },
          {
            "elSymbol": "C",
            "p3d": {
              "x": 1.653574122857636,
              "y": -0.9806588575835472,
              "z": -3.401091918506773
            }
          },
          {
            "elSymbol": "C",
            "p3d": {
              "x": 0.7467262413835863,
              "y": -1.4689933619345572,
              "z": -2.5304198897116112
            }
          }
        ],
        "bonds": [
          {
            "atomIds": [
              1,
              0
            ],
            "bo": "SINGLE"
          },
          {
            "atomIds": [
              2,
              1
            ],
            "bo": "DOUBLE"
          },
          {
            "atomIds": [
              3,
              2
            ],
            "bo": "SINGLE"
          },
          {
            "atomIds": [
              4,
              3
            ],
            "bo": "SINGLE"
          },
          {
            "atomIds": [
              5,
              3
            ],
            "bo": "SINGLE"
          },
          {
            "atomIds": [
              6,
              3
            ],
            "bo": "SINGLE"
          },
          {
            "atomIds": [
              7,
              6
            ],
            "bo": "SINGLE"
          },
          {
            "atomIds": [
              8,
              6
            ],
            "bo": "SINGLE"
          },
          {
            "atomIds": [
              9,
              6
            ],
            "bo": "SINGLE"
          },
          {
            "atomIds": [
              9,
              12
            ],
            "bo": "SINGLE"
          },
          {
            "atomIds": [
              10,
              9
            ],
            "bo": "SINGLE"
          },
          {
            "atomIds": [
              11,
              9
            ],
            "bo": "SINGLE"
          },
          {
            "atomIds": [
              12,
              2
            ],
            "bo": "SINGLE"
          },
          {
            "atomIds": [
              12,
              13
            ],
            "bo": "DOUBLE"
          },
          {
            "atomIds": [
              13,
              0
            ],
            "bo": "SINGLE"
          }
        ]
      },
      "vertexId": 186637,
      "buildingBlockId": 46,
      "buildingBlockType": "FRAGMENT",
      "isRCV": false,
      "properties": {
        "ATTACHMENT_POINTS": "1#LPhospholeSubR:0:SINGLE:-1.6224%0.1413%-2.5683,MPhosphole:1:SINGLE:-0.0098%0.0049%0.6329 2#LPhospholeSubAlpha:0:SINGLE:1.1952%2.6700%-2.3085 14#LPhospholeSubAlpha:0:SINGLE:0.4502%-2.9393%-2.2748 "
      },
      "uniquefyingPropertyKeys": [],
      "allowedMutationTypes": [
        "DELETE",
        "EXTEND",
        "CHANGEBRANCH",
        "CHANGELINK",
        "ADDLINK",
        "DELETELINK",
        "DELETECHAIN"
      ],
      "vertexType": "MolecularFragment"
    },
    {
      "lstAPs": [
        {
          "id": 1285828,
          "atomPositionNumber": 0,
          "atomPositionNumberInMol": 19,
          "apClass": {
            "rule": "ATplus",
            "subClass": 0,
            "bndTyp": "ANY"
          },
          "dirVec": {
            "x": 0.4502422566953904,
            "y": -2.9393437322817815,
            "z": -2.274792259665105
          }
        }
      ],
      "lstSymAPs": [],
      "mol": {
        "atoms": [
          {
            "elSymbol": "ATP",
            "p3d": {
              "x": 0.44615185701331184,
              "y": -2.959629214796925,
              "z": -2.2712655289454933
            }
          }
        ],
        "bonds": []
      },
      "vertexId": 186638,
      "buildingBlockId": 77,
      "buildingBlockType": "FRAGMENT",
      "isRCV": true,
      "properties": {
        "ATTACHMENT_POINTS": "1#ATplus:0:ANY:0.4502%-2.9393%-2.2748 "
      },
      "uniquefyingPropertyKeys": [],
      "allowedMutationTypes": [
        "DELETE",
        "EXTEND",
        "CHANGEBRANCH",
        "CHANGELINK",
        "ADDLINK",
        "DELETELINK",
        "DELETECHAIN"
      ],
      "vertexType": "MolecularFragment"
    },
    {
      "lstAPs": [
        {
          "id": 1285829,
          "atomPositionNumber": 0,
          "atomPositionNumberInMol": 20,
          "apClass": {
            "rule": "ATplus",
            "subClass": 0,
            "bndTyp": "ANY"
          },
          "dirVec": {
            "x": 1.1952099210498432,
            "y": 2.669985792653061,
            "z": -2.3085490332157885
          }
        }
      ],
      "lstSymAPs": [],
      "mol": {
        "atoms": [
          {
            "elSymbol": "ATP",
            "p3d": {
              "x": 1.19682737639236,
              "y": 2.6906334671859207,
              "z": -2.3051245077596034
            }
          }
        ],
        "bonds": []
      },
      "vertexId": 186639,
      "buildingBlockId": 77,
      "buildingBlockType": "FRAGMENT",
      "isRCV": true,
      "properties": {
        "ATTACHMENT_POINTS": "1#ATplus:0:ANY:1.1952%2.6700%-2.3085 "
      },
      "uniquefyingPropertyKeys": [],
      "allowedMutationTypes": [
        "DELETE",
        "EXTEND",
        "CHANGEBRANCH",
        "CHANGELINK",
        "ADDLINK",
        "DELETELINK",
        "DELETECHAIN"
      ],
      "vertexType": "MolecularFragment"
    },
    {
      "lstAPs": [
        {
          "id": 1285830,
          "atomPositionNumber": 1,
          "atomPositionNumberInMol": 33,
          "apClass": {
            "rule": "Xlig",
            "subClass": 1,
            "bndTyp": "SINGLE"
          },
          "dirVec": {
            "x": 5.983,
            "y": 5.659,
            "z": 10.7602
          }
        },
        {
          "id": 1285831,
          "atomPositionNumber": 0,
          "atomPositionNumberInMol": 32,
          "apClass": {
            "rule": "bridge",
            "subClass": 1,
            "bndTyp": "SINGLE"
          },
          "dirVec": {
            "x": 3.1219,
            "y": 7.0322,
            "z": 12.57
          }
        }
      ],
      "lstSymAPs": [],
      "mol": {
        "atoms": [
          {
            "elSymbol": "S",
            "p3d": {
              "x": 3.289,
              "y": 7.1626,
              "z": 10.7898
            }
          },
          {
            "elSymbol": "O",
            "p3d": {
              "x": 4.7494,
              "y": 7.4238,
              "z": 10.5812
            }
          },
          {
            "elSymbol": "O",
            "p3d": {
              "x": 2.8666,
              "y": 5.9079,
              "z": 10.2063
            }
          },
          {
            "elSymbol": "O",
            "p3d": {
              "x": 2.5225,
              "y": 8.319,
              "z": 10.3914
            }
          }
        ],
        "bonds": [
          {
            "atomIds": [
              0,
              1
            ],
            "bo": "SINGLE"
          },
          {
            "atomIds": [
              2,
              0
            ],
            "bo": "DOUBLE"
          },
          {
            "atomIds": [
              3,
              0
            ],
            "bo": "DOUBLE"
          }
        ]
      },
      "vertexId": 186640,
      "buildingBlockId": 76,
      "buildingBlockType": "FRAGMENT",
      "isRCV": false,
      "properties": {
        "ATTACHMENT_POINTS": "1#bridge:1:SINGLE:3.1219%7.0322%12.5700 2#Xlig:1:SINGLE:5.9830%5.6590%10.7602 "
      },
      "uniquefyingPropertyKeys": [],
      "allowedMutationTypes": [
        "DELETE",
        "EXTEND",
        "CHANGEBRANCH",
        "CHANGELINK",
        "ADDLINK",
        "DELETELINK",
        "DELETECHAIN"
      ],
      "vertexType": "MolecularFragment"
    },
    {
      "lstAPs": [
        {
          "id": 1285832,
          "atomPositionNumber": 1,
          "atomPositionNumberInMol": 41,
          "apClass": {
            "rule": "Xlig",
            "subClass": 1,
            "bndTyp": "SINGLE"
          },
          "dirVec": {
            "x": 5.983,
            "y": 5.659,
            "z": 10.7602
          }
        },
        {
          "id": 1285833,
          "atomPositionNumber": 0,
          "atomPositionNumberInMol": 40,
          "apClass": {
            "rule": "bridge",
            "subClass": 1,
            "bndTyp": "SINGLE"
          },
          "dirVec": {
            "x": 3.1219,
            "y": 7.0322,
            "z": 12.57
          }
        }
      ],
      "lstSymAPs": [],
      "mol": {
        "atoms": [
          {
            "elSymbol": "S",
            "p3d": {
              "x": 3.289,
              "y": 7.1626,
              "z": 10.7898
            }
          },
          {
            "elSymbol": "O",
            "p3d": {
              "x": 4.7494,
              "y": 7.4238,
              "z": 10.5812
            }
          },
          {
            "elSymbol": "O",
            "p3d": {
              "x": 2.8666,
              "y": 5.9079,
              "z": 10.2063
            }
          },
          {
            "elSymbol": "O",
            "p3d": {
              "x": 2.5225,
              "y": 8.319,
              "z": 10.3914
            }
          }
        ],
        "bonds": [
          {
            "atomIds": [
              0,
              1
            ],
            "bo": "SINGLE"
          },
          {
            "atomIds": [
              2,
              0
            ],
            "bo": "DOUBLE"
          },
          {
            "atomIds": [
              3,
              0
            ],
            "bo": "DOUBLE"
          }
        ]
      },
      "vertexId": 186641,
      "buildingBlockId": 76,
      "buildingBlockType": "FRAGMENT",
      "isRCV": false,
      "properties": {
        "ATTACHMENT_POINTS": "1#bridge:1:SINGLE:3.1219%7.0322%12.5700 2#Xlig:1:SINGLE:5.9830%5.6590%10.7602 "
      },
      "uniquefyingPropertyKeys": [],
      "allowedMutationTypes": [
        "DELETE",
        "EXTEND",
        "CHANGEBRANCH",
        "CHANGELINK",
        "ADDLINK",
        "DELETELINK",
        "DELETECHAIN"
      ],
      "vertexType": "MolecularFragment"
    },
    {
      "lstAPs": [
        {
          "id": 1285834,
          "atomPositionNumber": 0,
          "atomPositionNumberInMol": 36,
          "apClass": {
            "rule": "bridge",
            "subClass": 0,
            "bndTyp": "SINGLE"
          },
          "dirVec": {
            "x": -1.0417,
            "y": -0.7693,
            "z": 0.07320000000000002
          }
        },
        {
          "id": 1285835,
          "atomPositionNumber": 0,
          "atomPositionNumberInMol": 36,
          "apClass": {
            "rule": "bridge",
            "subClass": 0,
            "bndTyp": "SINGLE"
          },
          "dirVec": {
            "x": 1.2664,
            "y": -1.9999999999997797E-4,
            "z": 0.2522
          }
        }
      ],
      "lstSymAPs": [
        {
          "symIds": [
            0,
            1
          ]
        }
      ],
      "mol": {
        "atoms": [
          {
            "elSymbol": "C",
            "p3d": {
              "x": 0.4112,
              "y": -1.2101,
              "z": -0.1993
            }
          },
          {
            "elSymbol": "H",
            "p3d": {
              "x": 0.6587,
              "y": -2.0933,
              "z": 0.3897
            }
          },
          {
            "elSymbol": "H",
            "p3d": {
              "x": 0.5577,
              "y": -1.4056,
              "z": -1.2616
            }
          }
        ],
        "bonds": [
          {
            "atomIds": [
              0,
              1
            ],
            "bo": "SINGLE"
          },
          {
            "atomIds": [
              0,
              2
            ],
            "bo": "SINGLE"
          }
        ]
      },
      "vertexId": 186642,
      "buildingBlockId": 66,
      "buildingBlockType": "FRAGMENT",
      "isRCV": false,
      "properties": {
        "ATTACHMENT_POINTS": "1#bridge:0:SINGLE:-1.0417%-0.7693%0.0732,bridge:0:SINGLE:1.2664%-0.0002%0.2522 "
      },
      "uniquefyingPropertyKeys": [],
      "allowedMutationTypes": [
        "DELETE",
        "EXTEND",
        "CHANGEBRANCH",
        "CHANGELINK",
        "ADDLINK",
        "DELETELINK",
        "DELETECHAIN"
      ],
      "vertexType": "MolecularFragment"
    },
    {
      "lstAPs": [
        {
          "id": 1285836,
          "atomPositionNumber": 0,
          "atomPositionNumberInMol": 44,
          "apClass": {
            "rule": "bridge",
            "subClass": 0,
            "bndTyp": "SINGLE"
          },
          "dirVec": {
            "x": -1.0417,
            "y": -0.7693,
            "z": 0.07320000000000002
          }
        },
        {
          "id": 1285837,
          "atomPositionNumber": 0,
          "atomPositionNumberInMol": 44,
          "apClass": {
            "rule": "bridge",
            "subClass": 0,
            "bndTyp": "SINGLE"
          },
          "dirVec": {
            "x": 1.2664,
            "y": -1.9999999999997797E-4,
            "z": 0.2522
          }
        }
      ],
      "lstSymAPs": [
        {
          "symIds": [
            0,
            1
          ]
        }
      ],
      "mol": {
        "atoms": [
          {
            "elSymbol": "C",
            "p3d": {
              "x": 0.4112,
              "y": -1.2101,
              "z": -0.1993
            }
          },
          {
            "elSymbol": "H",
            "p3d": {
              "x": 0.6587,
              "y": -2.0933,
              "z": 0.3897
            }
          },
          {
            "elSymbol": "H",
            "p3d": {
              "x": 0.5577,
              "y": -1.4056,
              "z": -1.2616
            }
          }
        ],
        "bonds": [
          {
            "atomIds": [
              0,
              1
            ],
            "bo": "SINGLE"
          },
          {
            "atomIds": [
              0,
              2
            ],
            "bo": "SINGLE"
          }
        ]
      },
      "vertexId": 186643,
      "buildingBlockId": 66,
      "buildingBlockType": "FRAGMENT",
      "isRCV": false,
      "properties": {
        "ATTACHMENT_POINTS": "1#bridge:0:SINGLE:-1.0417%-0.7693%0.0732,bridge:0:SINGLE:1.2664%-0.0002%0.2522 "
      },
      "uniquefyingPropertyKeys": [],
      "allowedMutationTypes": [
        "DELETE",
        "EXTEND",
        "CHANGEBRANCH",
        "CHANGELINK",
        "ADDLINK",
        "DELETELINK",
        "DELETECHAIN"
      ],
      "vertexType": "MolecularFragment"
    },
    {
      "lstAPs": [
        {
          "id": 1285838,
          "atomPositionNumber": 0,
          "atomPositionNumberInMol": 39,
          "apClass": {
            "rule": "ATminus",
            "subClass": 0,
            "bndTyp": "ANY"
          },
          "dirVec": {
            "x": 0.0109,
            "y": -0.0071,
            "z": 0.0026
          }
        }
      ],
      "lstSymAPs": [],
      "mol": {
        "atoms": [
          {
            "elSymbol": "ATM",
            "p3d": {
              "x": -0.0096,
              "y": 0.0045,
              "z": -0.0011
            }
          }
        ],
        "bonds": []
      },
      "vertexId": 186644,
      "buildingBlockId": 78,
      "buildingBlockType": "FRAGMENT",
      "isRCV": true,
      "properties": {
        "ATTACHMENT_POINTS": "1#ATminus:0:ANY:0.0109%-0.0071%0.0026 "
      },
      "uniquefyingPropertyKeys": [],
      "allowedMutationTypes": [
        "DELETE",
        "EXTEND",
        "CHANGEBRANCH",
        "CHANGELINK",
        "ADDLINK",
        "DELETELINK",
        "DELETECHAIN"
      ],
      "vertexType": "MolecularFragment"
    },
    {
      "lstAPs": [
        {
          "id": 1285839,
          "atomPositionNumber": 0,
          "atomPositionNumberInMol": 47,
          "apClass": {
            "rule": "ATminus",
            "subClass": 0,
            "bndTyp": "ANY"
          },
          "dirVec": {
            "x": 0.0109,
            "y": -0.0071,
            "z": 0.0026
          }
        }
      ],
      "lstSymAPs": [],
      "mol": {
        "atoms": [
          {
            "elSymbol": "ATM",
            "p3d": {
              "x": -0.0096,
              "y": 0.0045,
              "z": -0.0011
            }
          }
        ],
        "bonds": []
      },
      "vertexId": 186645,
      "buildingBlockId": 78,
      "buildingBlockType": "FRAGMENT",
      "isRCV": true,
      "properties": {
        "ATTACHMENT_POINTS": "1#ATminus:0:ANY:0.0109%-0.0071%0.0026 "
      },
      "uniquefyingPropertyKeys": [],
      "allowedMutationTypes": [
        "DELETE",
        "EXTEND",
        "CHANGEBRANCH",
        "CHANGELINK",
        "ADDLINK",
        "DELETELINK",
        "DELETECHAIN"
      ],
      "vertexType": "MolecularFragment"
    },
    {
      "lstAPs": [
        {
          "id": 1285900,
          "atomPositionNumber": 0,
          "atomPositionNumberInMol": 21,
          "apClass": {
            "rule": "SubArS",
            "subClass": 1,
            "bndTyp": "SINGLE"
          },
          "dirVec": {
            "x": 0.2973,
            "y": 0.3873,
            "z": -0.6389
          }
        }
      ],
      "lstSymAPs": [],
      "mol": {
        "atoms": [
          {
            "elSymbol": "C",
            "p3d": {
              "x": 1.6995,
              "y": 0.5593,
              "z": -1.2083
            }
          },
          {
            "elSymbol": "C",
            "p3d": {
              "x": 4.2563,
              "y": 0.8754,
              "z": -2.2592
            }
          },
          {
            "elSymbol": "C",
            "p3d": {
              "x": 2.3334,
              "y": 1.79,
              "z": -1.1338
            }
          },
          {
            "elSymbol": "C",
            "p3d": {
              "x": 2.3422,
              "y": -0.5107,
              "z": -1.8125
            }
          },
          {
            "elSymbol": "C",
            "p3d": {
              "x": 3.612,
              "y": -0.3527,
              "z": -2.3321
            }
          },
          {
            "elSymbol": "C",
            "p3d": {
              "x": 3.6062,
              "y": 1.9513,
              "z": -1.6526
            }
          },
          {
            "elSymbol": "H",
            "p3d": {
              "x": 1.833,
              "y": 2.6461,
              "z": -0.6488
            }
          },
          {
            "elSymbol": "H",
            "p3d": {
              "x": 1.8361,
              "y": -1.4773,
              "z": -1.887
            }
          },
          {
            "elSymbol": "H",
            "p3d": {
              "x": 4.115,
              "y": -1.2043,
              "z": -2.8152
            }
          },
          {
            "elSymbol": "H",
            "p3d": {
              "x": 4.1097,
              "y": 2.9214,
              "z": -1.5842
            }
          },
          {
            "elSymbol": "H",
            "p3d": {
              "x": 5.2498,
              "y": 0.9926,
              "z": -2.665
            }
          }
        ],
        "bonds": [
          {
            "atomIds": [
              0,
              3
            ],
            "bo": "SINGLE"
          },
          {
            "atomIds": [
              3,
              4
            ],
            "bo": "DOUBLE"
          },
          {
            "atomIds": [
              1,
              4
            ],
            "bo": "SINGLE"
          },
          {
            "atomIds": [
              1,
              5
            ],
            "bo": "DOUBLE"
          },
          {
            "atomIds": [
              2,
              5
            ],
            "bo": "SINGLE"
          },
          {
            "atomIds": [
              0,
              2
            ],
            "bo": "DOUBLE"
          },
          {
            "atomIds": [
              4,
              8
            ],
            "bo": "SINGLE"
          },
          {
            "atomIds": [
              5,
              9
            ],
            "bo": "SINGLE"
          },
          {
            "atomIds": [
              1,
              10
            ],
            "bo": "SINGLE"
          },
          {
            "atomIds": [
              2,
              6
            ],
            "bo": "SINGLE"
          },
          {
            "atomIds": [
              3,
              7
            ],
            "bo": "SINGLE"
          }
        ]
      },
      "vertexId": 1038411,
      "buildingBlockId": 28,
      "buildingBlockType": "FRAGMENT",
      "isRCV": false,
      "properties": {
        "ATTACHMENT_POINTS": "1#SubArS:1:SINGLE:0.2973%0.3873%-0.6389 "
      },
      "uniquefyingPropertyKeys": [],
      "allowedMutationTypes": [
        "DELETE",
        "EXTEND",
        "CHANGEBRANCH",
        "CHANGELINK",
        "ADDLINK",
        "DELETELINK",
        "DELETECHAIN"
      ],
      "vertexType": "MolecularFragment"
    }
  ],
  "gEdges": [
    {
      "srcAPID": 1285823,
      "trgAPID": 1285825,
      "bondType": "SINGLE"
    },
    {
      "srcAPID": 1285827,
      "trgAPID": 1285828,
      "bondType": "SINGLE"
    },
    {
      "srcAPID": 1285826,
      "trgAPID": 1285829,
      "bondType": "SINGLE"
    },
    {
      "srcAPID": 1285822,
      "trgAPID": 1285830,
      "bondType": "SINGLE"
    },
    {
      "srcAPID": 1285821,
      "trgAPID": 1285832,
      "bondType": "SINGLE"
    },
    {
      "srcAPID": 1285831,
      "trgAPID": 1285835,
      "bondType": "SINGLE"
    },
    {
      "srcAPID": 1285833,
      "trgAPID": 1285837,
      "bondType": "SINGLE"
    },
    {
      "srcAPID": 1285834,
      "trgAPID": 1285838,
      "bondType": "SINGLE"
    },
    {
      "srcAPID": 1285836,
      "trgAPID": 1285839,
      "bondType": "SINGLE"
    },
    {
      "srcAPID": 1285824,
      "trgAPID": 1285900,
      "bondType": "SINGLE"
    }
  ],
  "gRings": [
    {
      "vertices": [
        186638,
        186637,
        186636,
        186640,
        186642,
        186644
      ],
      "bndTyp": "SINGLE"
    },
    {
      "vertices": [
        186639,
        186637,
        186636,
        186641,
        186643,
        186645
      ],
      "bndTyp": "SINGLE"
    }
  ],
  "symVertices": [
    {
      "symIds": [
        186638,
        186639
      ]
    },
    {
      "symIds": [
        186640,
        186641
      ]
    },
    {
      "symIds": [
        186642,
        186643
      ]
    },
    {
      "symIds": [
        186644,
        186645
      ]
    }
  ]
}

> <SMILES>
[Pt]12(C#O)[P]3(C(=C4C([H])([H])C([H])([H])C(C4=C3C([H])([H])S(O1)(=O)=O)([H])[H])C([H])([H])S(O2)(=O)=O)C=5C(=C(C(=C(C5[H])[H])[H])[H])[H]

$$$$
