M00010878
  CDK     05032208393D

 38 40  0  0  0  0  0  0  0  0999 V2000
   -2.9663   -0.0213    0.0170 Pt  0  0  0  0  0  0  0  0  0  0  0  0
   -4.9159   -0.0353    0.0283 C   0  0  0  0  0  0  0  0  0  0  0  0
   -6.0566   -0.0436    0.0348 O   0  0  0  0  0  0  0  0  0  0  0  0
   -0.1556    0.2449    1.0870 N   0  0  2  0  0  0  0  0  0  0  0  0
   -0.1645   -0.2471   -1.0850 N   0  0  2  0  0  0  0  0  0  0  0  0
   -0.9489   -0.0067    0.0055 C   0  0  0  0  0  0  0  0  0  0  0  0
    1.3307    0.1969    0.7757 C   0  0  0  0  0  0  0  0  0  0  0  0
    1.3244   -0.1776   -0.7908 C   0  0  0  0  0  0  0  0  0  0  0  0
    1.9406    1.5675    1.0649 C   0  0  0  0  0  0  0  0  0  0  0  0
    3.0020    1.6020    0.7894 H   0  0  0  0  0  0  0  0  0  0  0  0
    1.4286    2.3758    0.5216 H   0  0  0  0  0  0  0  0  0  0  0  0
    1.8837    1.8248    2.1304 H   0  0  0  0  0  0  0  0  0  0  0  0
    1.9507   -1.5393   -1.0870 C   0  0  0  0  0  0  0  0  0  0  0  0
    1.8852   -1.7975   -2.1519 H   0  0  0  0  0  0  0  0  0  0  0  0
    3.0155   -1.5583   -0.8238 H   0  0  0  0  0  0  0  0  0  0  0  0
    1.4567   -2.3548   -0.5379 H   0  0  0  0  0  0  0  0  0  0  0  0
    1.9843   -0.8700    1.6511 C   0  0  0  0  0  0  0  0  0  0  0  0
    2.0159   -0.5745    2.7077 H   0  0  0  0  0  0  0  0  0  0  0  0
    1.4371   -1.8275    1.6178 H   0  0  0  0  0  0  0  0  0  0  0  0
    3.0206   -1.0649    1.3511 H   0  0  0  0  0  0  0  0  0  0  0  0
    1.9525    0.8985   -1.6736 C   0  0  0  0  0  0  0  0  0  0  0  0
    1.9760    0.6035   -2.7305 H   0  0  0  0  0  0  0  0  0  0  0  0
    1.3920    1.8481   -1.6338 H   0  0  0  0  0  0  0  0  0  0  0  0
    2.9892    1.1084   -1.3855 H   0  0  0  0  0  0  0  0  0  0  0  0
   -1.8474   -0.8009    2.8704 S   0  0  0  0  0  0  0  0  0  0  0  0
   -3.1379   -0.3025    2.0405 O   0  0  0  0  0  0  0  0  0  0  0  0
   -1.3726   -2.0313    2.2843 O   0  0  0  0  0  0  0  0  0  0  0  0
   -2.0927   -0.6845    4.2787 O   0  0  0  0  0  0  0  0  0  0  0  0
   -0.7030    0.5281    2.4109 C   0  0  0  0  0  0  0  0  0  0  0  0
    0.1072    0.6374    3.1652 H   0  0  0  0  0  0  0  0  0  0  0  0
   -1.2240    1.5189    2.4200 H   0  0  0  0  0  0  0  0  0  0  0  0
   -1.8915    0.7735   -2.8495 S   0  0  0  0  0  0  0  0  0  0  0  0
   -3.1650    0.2573   -2.0042 O   0  0  0  0  0  0  0  0  0  0  0  0
   -1.4276    2.0111   -2.2699 O   0  0  0  0  0  0  0  0  0  0  0  0
   -2.1515    0.6523   -4.2547 O   0  0  0  0  0  0  0  0  0  0  0  0
   -0.7228   -0.5385   -2.4026 C   0  0  0  0  0  0  0  0  0  0  0  0
    0.0804   -0.6363   -3.1660 H   0  0  0  0  0  0  0  0  0  0  0  0
   -1.2294   -1.5368   -2.4057 H   0  0  0  0  0  0  0  0  0  0  0  0
  2  3  3  0  0  0  0
  1  2  1  0  0  0  0
  4  6  1  0  0  0  0
  5  6  1  0  0  0  0
  7  4  1  0  0  0  0
  7  8  1  0  0  0  0
  8  5  1  0  0  0  0
  1  6  1  0  0  0  0
 10  9  1  0  0  0  0
 11  9  1  0  0  0  0
 12  9  1  0  0  0  0
  7  9  1  0  0  0  0
 14 13  1  0  0  0  0
 15 13  1  0  0  0  0
 16 13  1  0  0  0  0
  8 13  1  0  0  0  0
 18 17  1  0  0  0  0
 19 17  1  0  0  0  0
 20 17  1  0  0  0  0
  7 17  1  0  0  0  0
 22 21  1  0  0  0  0
 23 21  1  0  0  0  0
 24 21  1  0  0  0  0
  8 21  1  0  0  0  0
 25 26  1  0  0  0  0
 27 25  2  0  0  0  0
 28 25  2  0  0  0  0
  1 26  1  0  0  0  0
 29 30  1  0  0  0  0
 29 31  1  0  0  0  0
 25 29  1  0  0  0  0
 32 33  1  0  0  0  0
 34 32  2  0  0  0  0
 35 32  2  0  0  0  0
  1 33  1  0  0  0  0
 36 37  1  0  0  0  0
 36 38  1  0  0  0  0
 32 36  1  0  0  0  0
  4 29  1  0  0  0  0
  5 36  1  0  0  0  0
M  END
> <PM6_ENERGY>
-945.579

> <UID>
XPZFZFNSGAMQBN-YMOWDTSXNA-L

> <FITNESS>
1.14075

> <GCODE>
21958

> <GraphENC>
21958 170956_1_0,170957_62_1,170958_78_1,170959_78_1,170960_77_1,170961_77_1,170962_67_1,170963_67_1,170964_79_1,170965_79_1,781494_16_1,781495_16_1,781491_16_1,781496_16_1, 170956_2_170957_2_SINGLE_scaff:0_MImidazolidinylidene:1,170957_0_170958_0_SINGLE_LImidazolidinylideneSubNL:0_ATplus:0,170957_1_170959_0_SINGLE_LImidazolidinylideneSubNL:0_ATplus:0,170956_0_170960_0_SINGLE_Xlig:0_Xlig:1,170956_1_170961_0_SINGLE_Xlig:0_Xlig:1,170960_1_170962_1_SINGLE_bridge:1_bridge:0,170961_1_170963_1_SINGLE_bridge:1_bridge:0,170963_0_170964_0_SINGLE_bridge:0_ATminus:0,170962_0_170965_0_SINGLE_bridge:0_ATminus:0,170957_4_781494_0_SINGLE_LImidazolidinylideneSubCS:0_LPyrrolidinylideneSubCGammaS:1,170957_5_781495_0_SINGLE_LImidazolidinylideneSubCS:0_LPyrrolidinylideneSubCGammaS:1,170957_3_781491_0_SINGLE_LImidazolidinylideneSubCS:0_LPyrrolidinylideneSubCGammaS:1,170957_6_781496_0_SINGLE_LImidazolidinylideneSubCS:0_LPyrrolidinylideneSubCGammaS:1, DENOPTIMRing [vertices=[170958_78_1, 170957_62_1, 170956_1_0, 170960_77_1, 170962_67_1, 170965_79_1]] DENOPTIMRing [vertices=[170959_78_1, 170957_62_1, 170956_1_0, 170961_77_1, 170963_67_1, 170964_79_1]] SymmetricSet [symIds=[170958, 170959]] SymmetricSet [symIds=[170960, 170961]] SymmetricSet [symIds=[170962, 170963]] SymmetricSet [symIds=[170964, 170965]] SymmetricSet [symIds=[781494, 781495, 781491, 781496]] 

> <GraphJson>
{
  "graphId": 21958,
  "gVertices": [
    {
      "lstAPs": [
        {
          "id": 874800,
          "atomPositionNumber": 0,
          "atomPositionNumberInMol": 0,
          "apClass": {
            "rule": "Xlig",
            "subClass": 0,
            "bndTyp": "SINGLE"
          },
          "dirVec": {
            "x": -2.3339,
            "y": -0.0087,
            "z": 0.8172
          }
        },
        {
          "id": 874801,
          "atomPositionNumber": 0,
          "atomPositionNumberInMol": 0,
          "apClass": {
            "rule": "Xlig",
            "subClass": 0,
            "bndTyp": "SINGLE"
          },
          "dirVec": {
            "x": 2.336,
            "y": -5.0E-4,
            "z": 0.829
          }
        },
        {
          "id": 874802,
          "atomPositionNumber": 0,
          "atomPositionNumberInMol": 0,
          "apClass": {
            "rule": "scaff",
            "subClass": 0,
            "bndTyp": "SINGLE"
          },
          "dirVec": {
            "x": -0.0095,
            "y": 0.0046,
            "z": -1.7113
          }
        }
      ],
      "lstSymAPs": [
        {
          "symIds": [
            0,
            1
          ]
        }
      ],
      "mol": {
        "atoms": [
          {
            "elSymbol": "Pt",
            "p3d": {
              "x": -0.0098,
              "y": 0.0049,
              "z": 0.6289
            }
          },
          {
            "elSymbol": "C",
            "p3d": {
              "x": -6.0E-4,
              "y": 0.0016,
              "z": 2.5609
            }
          },
          {
            "elSymbol": "O",
            "p3d": {
              "x": 0.0025,
              "y": -0.0041,
              "z": 3.6974
            }
          },
          {
            "elSymbol": "Du",
            "p3d": {
              "x": -0.007,
              "y": 1.0013,
              "z": 0.6372
            }
          },
          {
            "elSymbol": "Du",
            "p3d": {
              "x": -0.0014,
              "y": 0.9902,
              "z": 2.5698
            }
          }
        ],
        "bonds": [
          {
            "atomIds": [
              1,
              2
            ],
            "bo": "TRIPLE"
          },
          {
            "atomIds": [
              0,
              1
            ],
            "bo": "SINGLE"
          },
          {
            "atomIds": [
              3,
              0
            ],
            "bo": "SINGLE"
          },
          {
            "atomIds": [
              4,
              1
            ],
            "bo": "SINGLE"
          }
        ]
      },
      "vertexId": 170956,
      "buildingBlockId": 0,
      "buildingBlockType": "SCAFFOLD",
      "isRCV": false,
      "properties": {
        "ATTACHMENT_POINTS": "1#Xlig:0:SINGLE:-2.3339%-0.0087%0.8172,Xlig:0:SINGLE:2.3360%-0.0005%0.8290,scaff:0:SINGLE:-0.0095%0.0046%-1.7113 "
      },
      "uniquefyingPropertyKeys": [],
      "allowedMutationTypes": [
        "DELETE",
        "EXTEND",
        "CHANGEBRANCH",
        "CHANGELINK",
        "ADDLINK",
        "DELETELINK",
        "DELETECHAIN"
      ],
      "vertexType": "MolecularFragment"
    },
    {
      "lstAPs": [
        {
          "id": 874803,
          "atomPositionNumber": 0,
          "atomPositionNumberInMol": 5,
          "apClass": {
            "rule": "LImidazolidinylideneSubNL",
            "subClass": 0,
            "bndTyp": "SINGLE"
          },
          "dirVec": {
            "x": -0.7290155514400583,
            "y": -2.3407324171627506,
            "z": -1.5403862972848064
          }
        },
        {
          "id": 874804,
          "atomPositionNumber": 1,
          "atomPositionNumberInMol": 6,
          "apClass": {
            "rule": "LImidazolidinylideneSubNL",
            "subClass": 0,
            "bndTyp": "SINGLE"
          },
          "dirVec": {
            "x": 0.7015117439828097,
            "y": 2.293463277658591,
            "z": -2.208772001163548
          }
        },
        {
          "id": 874805,
          "atomPositionNumber": 2,
          "atomPositionNumberInMol": 7,
          "apClass": {
            "rule": "MImidazolidinylidene",
            "subClass": 1,
            "bndTyp": "SINGLE"
          },
          "dirVec": {
            "x": -0.00977619395237964,
            "y": 0.004876193952379835,
            "z": 0.4431969578631234
          }
        },
        {
          "id": 874806,
          "atomPositionNumber": 3,
          "atomPositionNumberInMol": 8,
          "apClass": {
            "rule": "LImidazolidinylideneSubCS",
            "subClass": 0,
            "bndTyp": "SINGLE"
          },
          "dirVec": {
            "x": -2.466445372023485,
            "y": -0.5594832006476225,
            "z": -3.4105976803139235
          }
        },
        {
          "id": 874807,
          "atomPositionNumber": 3,
          "atomPositionNumberInMol": 8,
          "apClass": {
            "rule": "LImidazolidinylideneSubCS",
            "subClass": 0,
            "bndTyp": "SINGLE"
          },
          "dirVec": {
            "x": -0.6833109294474158,
            "y": -1.8808076288221864,
            "z": -4.5706300096944865
          }
        },
        {
          "id": 874808,
          "atomPositionNumber": 4,
          "atomPositionNumberInMol": 9,
          "apClass": {
            "rule": "LImidazolidinylideneSubCS",
            "subClass": 0,
            "bndTyp": "SINGLE"
          },
          "dirVec": {
            "x": -1.030637922205527,
            "y": 1.5642138937282029,
            "z": -4.633113041520861
          }
        },
        {
          "id": 874809,
          "atomPositionNumber": 4,
          "atomPositionNumberInMol": 9,
          "apClass": {
            "rule": "LImidazolidinylideneSubCS",
            "subClass": 0,
            "bndTyp": "SINGLE"
          },
          "dirVec": {
            "x": 1.1259062825942276,
            "y": 0.3427863299952381,
            "z": -4.5817081847663825
          }
        }
      ],
      "lstSymAPs": [
        {
          "symIds": [
            0,
            1
          ]
        },
        {
          "symIds": [
            3,
            4,
            5,
            6
          ]
        }
      ],
      "mol": {
        "atoms": [
          {
            "elSymbol": "N",
            "p3d": {
              "x": -0.3798235866489816,
              "y": -1.1150472750133416,
              "z": -2.195475195099087
            }
          },
          {
            "elSymbol": "N",
            "p3d": {
              "x": 0.09290568655205932,
              "y": 1.0102027238636873,
              "z": -2.4472309031416373
            }
          },
          {
            "elSymbol": "C",
            "p3d": {
              "x": -0.009523806047620362,
              "y": 0.004623806047620165,
              "z": -1.5255969578631237
            }
          },
          {
            "elSymbol": "C",
            "p3d": {
              "x": -0.9528246398021933,
              "y": -0.7790550047774194,
              "z": -3.555250201277323
            }
          },
          {
            "elSymbol": "C",
            "p3d": {
              "x": -0.18662573706339824,
              "y": 0.5622998815728788,
              "z": -3.854549984615108
            }
          }
        ],
        "bonds": [
          {
            "atomIds": [
              0,
              2
            ],
            "bo": "SINGLE"
          },
          {
            "atomIds": [
              1,
              2
            ],
            "bo": "SINGLE"
          },
          {
            "atomIds": [
              3,
              0
            ],
            "bo": "SINGLE"
          },
          {
            "atomIds": [
              3,
              4
            ],
            "bo": "SINGLE"
          },
          {
            "atomIds": [
              4,
              1
            ],
            "bo": "SINGLE"
          }
        ]
      },
      "vertexId": 170957,
      "buildingBlockId": 61,
      "buildingBlockType": "FRAGMENT",
      "isRCV": false,
      "properties": {
        "ATTACHMENT_POINTS": "1#LImidazolidinylideneSubNL:0:SINGLE:-0.7290%-2.3407%-1.5404 2#LImidazolidinylideneSubNL:0:SINGLE:0.7015%2.2935%-2.2088 3#MImidazolidinylidene:1:SINGLE:-0.0098%0.0049%0.4432 4#LImidazolidinylideneSubCS:0:SINGLE:-2.4664%-0.5595%-3.4106,LImidazolidinylideneSubCS:0:SINGLE:-0.6833%-1.8808%-4.5706 5#LImidazolidinylideneSubCS:0:SINGLE:-1.0306%1.5642%-4.6331,LImidazolidinylideneSubCS:0:SINGLE:1.1259%0.3428%-4.5817 "
      },
      "uniquefyingPropertyKeys": [],
      "allowedMutationTypes": [
        "DELETE",
        "EXTEND",
        "CHANGEBRANCH",
        "CHANGELINK",
        "ADDLINK",
        "DELETELINK",
        "DELETECHAIN"
      ],
      "vertexType": "MolecularFragment"
    },
    {
      "lstAPs": [
        {
          "id": 874810,
          "atomPositionNumber": 0,
          "atomPositionNumberInMol": 10,
          "apClass": {
            "rule": "ATplus",
            "subClass": 0,
            "bndTyp": "ANY"
          },
          "dirVec": {
            "x": -0.7290155514400583,
            "y": -2.3407324171627506,
            "z": -1.5403862972848064
          }
        }
      ],
      "lstSymAPs": [],
      "mol": {
        "atoms": [
          {
            "elSymbol": "ATP",
            "p3d": {
              "x": -0.7341310299127811,
              "y": -2.358688059305756,
              "z": -1.53078958976465
            }
          }
        ],
        "bonds": []
      },
      "vertexId": 170958,
      "buildingBlockId": 77,
      "buildingBlockType": "FRAGMENT",
      "isRCV": true,
      "properties": {
        "ATTACHMENT_POINTS": "1#ATplus:0:ANY:-0.7290%-2.3407%-1.5404 "
      },
      "uniquefyingPropertyKeys": [],
      "allowedMutationTypes": [
        "DELETE",
        "EXTEND",
        "CHANGEBRANCH",
        "CHANGELINK",
        "ADDLINK",
        "DELETELINK",
        "DELETECHAIN"
      ],
      "vertexType": "MolecularFragment"
    },
    {
      "lstAPs": [
        {
          "id": 874811,
          "atomPositionNumber": 0,
          "atomPositionNumberInMol": 11,
          "apClass": {
            "rule": "ATplus",
            "subClass": 0,
            "bndTyp": "ANY"
          },
          "dirVec": {
            "x": 0.7015117439828097,
            "y": 2.293463277658591,
            "z": -2.208772001163548
          }
        }
      ],
      "lstSymAPs": [],
      "mol": {
        "atoms": [
          {
            "elSymbol": "ATP",
            "p3d": {
              "x": 0.7103830257348407,
              "y": 2.312168589239025,
              "z": -2.2052961302288123
            }
          }
        ],
        "bonds": []
      },
      "vertexId": 170959,
      "buildingBlockId": 77,
      "buildingBlockType": "FRAGMENT",
      "isRCV": true,
      "properties": {
        "ATTACHMENT_POINTS": "1#ATplus:0:ANY:0.7015%2.2935%-2.2088 "
      },
      "uniquefyingPropertyKeys": [],
      "allowedMutationTypes": [
        "DELETE",
        "EXTEND",
        "CHANGEBRANCH",
        "CHANGELINK",
        "ADDLINK",
        "DELETELINK",
        "DELETECHAIN"
      ],
      "vertexType": "MolecularFragment"
    },
    {
      "lstAPs": [
        {
          "id": 874812,
          "atomPositionNumber": 1,
          "atomPositionNumberInMol": 29,
          "apClass": {
            "rule": "Xlig",
            "subClass": 1,
            "bndTyp": "SINGLE"
          },
          "dirVec": {
            "x": 5.983,
            "y": 5.659,
            "z": 10.7602
          }
        },
        {
          "id": 874813,
          "atomPositionNumber": 0,
          "atomPositionNumberInMol": 28,
          "apClass": {
            "rule": "bridge",
            "subClass": 1,
            "bndTyp": "SINGLE"
          },
          "dirVec": {
            "x": 3.1219,
            "y": 7.0322,
            "z": 12.57
          }
        }
      ],
      "lstSymAPs": [],
      "mol": {
        "atoms": [
          {
            "elSymbol": "S",
            "p3d": {
              "x": 3.289,
              "y": 7.1626,
              "z": 10.7898
            }
          },
          {
            "elSymbol": "O",
            "p3d": {
              "x": 4.7494,
              "y": 7.4238,
              "z": 10.5812
            }
          },
          {
            "elSymbol": "O",
            "p3d": {
              "x": 2.8666,
              "y": 5.9079,
              "z": 10.2063
            }
          },
          {
            "elSymbol": "O",
            "p3d": {
              "x": 2.5225,
              "y": 8.319,
              "z": 10.3914
            }
          }
        ],
        "bonds": [
          {
            "atomIds": [
              0,
              1
            ],
            "bo": "SINGLE"
          },
          {
            "atomIds": [
              2,
              0
            ],
            "bo": "DOUBLE"
          },
          {
            "atomIds": [
              3,
              0
            ],
            "bo": "DOUBLE"
          }
        ]
      },
      "vertexId": 170960,
      "buildingBlockId": 76,
      "buildingBlockType": "FRAGMENT",
      "isRCV": false,
      "properties": {
        "ATTACHMENT_POINTS": "1#bridge:1:SINGLE:3.1219%7.0322%12.5700 2#Xlig:1:SINGLE:5.9830%5.6590%10.7602 "
      },
      "uniquefyingPropertyKeys": [],
      "allowedMutationTypes": [
        "DELETE",
        "EXTEND",
        "CHANGEBRANCH",
        "CHANGELINK",
        "ADDLINK",
        "DELETELINK",
        "DELETECHAIN"
      ],
      "vertexType": "MolecularFragment"
    },
    {
      "lstAPs": [
        {
          "id": 874814,
          "atomPositionNumber": 1,
          "atomPositionNumberInMol": 37,
          "apClass": {
            "rule": "Xlig",
            "subClass": 1,
            "bndTyp": "SINGLE"
          },
          "dirVec": {
            "x": 5.983,
            "y": 5.659,
            "z": 10.7602
          }
        },
        {
          "id": 874815,
          "atomPositionNumber": 0,
          "atomPositionNumberInMol": 36,
          "apClass": {
            "rule": "bridge",
            "subClass": 1,
            "bndTyp": "SINGLE"
          },
          "dirVec": {
            "x": 3.1219,
            "y": 7.0322,
            "z": 12.57
          }
        }
      ],
      "lstSymAPs": [],
      "mol": {
        "atoms": [
          {
            "elSymbol": "S",
            "p3d": {
              "x": 3.289,
              "y": 7.1626,
              "z": 10.7898
            }
          },
          {
            "elSymbol": "O",
            "p3d": {
              "x": 4.7494,
              "y": 7.4238,
              "z": 10.5812
            }
          },
          {
            "elSymbol": "O",
            "p3d": {
              "x": 2.8666,
              "y": 5.9079,
              "z": 10.2063
            }
          },
          {
            "elSymbol": "O",
            "p3d": {
              "x": 2.5225,
              "y": 8.319,
              "z": 10.3914
            }
          }
        ],
        "bonds": [
          {
            "atomIds": [
              0,
              1
            ],
            "bo": "SINGLE"
          },
          {
            "atomIds": [
              2,
              0
            ],
            "bo": "DOUBLE"
          },
          {
            "atomIds": [
              3,
              0
            ],
            "bo": "DOUBLE"
          }
        ]
      },
      "vertexId": 170961,
      "buildingBlockId": 76,
      "buildingBlockType": "FRAGMENT",
      "isRCV": false,
      "properties": {
        "ATTACHMENT_POINTS": "1#bridge:1:SINGLE:3.1219%7.0322%12.5700 2#Xlig:1:SINGLE:5.9830%5.6590%10.7602 "
      },
      "uniquefyingPropertyKeys": [],
      "allowedMutationTypes": [
        "DELETE",
        "EXTEND",
        "CHANGEBRANCH",
        "CHANGELINK",
        "ADDLINK",
        "DELETELINK",
        "DELETECHAIN"
      ],
      "vertexType": "MolecularFragment"
    },
    {
      "lstAPs": [
        {
          "id": 874816,
          "atomPositionNumber": 0,
          "atomPositionNumberInMol": 32,
          "apClass": {
            "rule": "bridge",
            "subClass": 0,
            "bndTyp": "SINGLE"
          },
          "dirVec": {
            "x": -1.0417,
            "y": -0.7693,
            "z": 0.07320000000000002
          }
        },
        {
          "id": 874817,
          "atomPositionNumber": 0,
          "atomPositionNumberInMol": 32,
          "apClass": {
            "rule": "bridge",
            "subClass": 0,
            "bndTyp": "SINGLE"
          },
          "dirVec": {
            "x": 1.2664,
            "y": -1.9999999999997797E-4,
            "z": 0.2522
          }
        }
      ],
      "lstSymAPs": [
        {
          "symIds": [
            0,
            1
          ]
        }
      ],
      "mol": {
        "atoms": [
          {
            "elSymbol": "C",
            "p3d": {
              "x": 0.4112,
              "y": -1.2101,
              "z": -0.1993
            }
          },
          {
            "elSymbol": "H",
            "p3d": {
              "x": 0.6587,
              "y": -2.0933,
              "z": 0.3897
            }
          },
          {
            "elSymbol": "H",
            "p3d": {
              "x": 0.5577,
              "y": -1.4056,
              "z": -1.2616
            }
          }
        ],
        "bonds": [
          {
            "atomIds": [
              0,
              1
            ],
            "bo": "SINGLE"
          },
          {
            "atomIds": [
              0,
              2
            ],
            "bo": "SINGLE"
          }
        ]
      },
      "vertexId": 170962,
      "buildingBlockId": 66,
      "buildingBlockType": "FRAGMENT",
      "isRCV": false,
      "properties": {
        "ATTACHMENT_POINTS": "1#bridge:0:SINGLE:-1.0417%-0.7693%0.0732,bridge:0:SINGLE:1.2664%-0.0002%0.2522 "
      },
      "uniquefyingPropertyKeys": [],
      "allowedMutationTypes": [
        "DELETE",
        "EXTEND",
        "CHANGEBRANCH",
        "CHANGELINK",
        "ADDLINK",
        "DELETELINK",
        "DELETECHAIN"
      ],
      "vertexType": "MolecularFragment"
    },
    {
      "lstAPs": [
        {
          "id": 874818,
          "atomPositionNumber": 0,
          "atomPositionNumberInMol": 40,
          "apClass": {
            "rule": "bridge",
            "subClass": 0,
            "bndTyp": "SINGLE"
          },
          "dirVec": {
            "x": -1.0417,
            "y": -0.7693,
            "z": 0.07320000000000002
          }
        },
        {
          "id": 874819,
          "atomPositionNumber": 0,
          "atomPositionNumberInMol": 40,
          "apClass": {
            "rule": "bridge",
            "subClass": 0,
            "bndTyp": "SINGLE"
          },
          "dirVec": {
            "x": 1.2664,
            "y": -1.9999999999997797E-4,
            "z": 0.2522
          }
        }
      ],
      "lstSymAPs": [
        {
          "symIds": [
            0,
            1
          ]
        }
      ],
      "mol": {
        "atoms": [
          {
            "elSymbol": "C",
            "p3d": {
              "x": 0.4112,
              "y": -1.2101,
              "z": -0.1993
            }
          },
          {
            "elSymbol": "H",
            "p3d": {
              "x": 0.6587,
              "y": -2.0933,
              "z": 0.3897
            }
          },
          {
            "elSymbol": "H",
            "p3d": {
              "x": 0.5577,
              "y": -1.4056,
              "z": -1.2616
            }
          }
        ],
        "bonds": [
          {
            "atomIds": [
              0,
              1
            ],
            "bo": "SINGLE"
          },
          {
            "atomIds": [
              0,
              2
            ],
            "bo": "SINGLE"
          }
        ]
      },
      "vertexId": 170963,
      "buildingBlockId": 66,
      "buildingBlockType": "FRAGMENT",
      "isRCV": false,
      "properties": {
        "ATTACHMENT_POINTS": "1#bridge:0:SINGLE:-1.0417%-0.7693%0.0732,bridge:0:SINGLE:1.2664%-0.0002%0.2522 "
      },
      "uniquefyingPropertyKeys": [],
      "allowedMutationTypes": [
        "DELETE",
        "EXTEND",
        "CHANGEBRANCH",
        "CHANGELINK",
        "ADDLINK",
        "DELETELINK",
        "DELETECHAIN"
      ],
      "vertexType": "MolecularFragment"
    },
    {
      "lstAPs": [
        {
          "id": 874820,
          "atomPositionNumber": 0,
          "atomPositionNumberInMol": 43,
          "apClass": {
            "rule": "ATminus",
            "subClass": 0,
            "bndTyp": "ANY"
          },
          "dirVec": {
            "x": 0.0109,
            "y": -0.0071,
            "z": 0.0026
          }
        }
      ],
      "lstSymAPs": [],
      "mol": {
        "atoms": [
          {
            "elSymbol": "ATM",
            "p3d": {
              "x": -0.0096,
              "y": 0.0045,
              "z": -0.0011
            }
          }
        ],
        "bonds": []
      },
      "vertexId": 170964,
      "buildingBlockId": 78,
      "buildingBlockType": "FRAGMENT",
      "isRCV": true,
      "properties": {
        "ATTACHMENT_POINTS": "1#ATminus:0:ANY:0.0109%-0.0071%0.0026 "
      },
      "uniquefyingPropertyKeys": [],
      "allowedMutationTypes": [
        "DELETE",
        "EXTEND",
        "CHANGEBRANCH",
        "CHANGELINK",
        "ADDLINK",
        "DELETELINK",
        "DELETECHAIN"
      ],
      "vertexType": "MolecularFragment"
    },
    {
      "lstAPs": [
        {
          "id": 874821,
          "atomPositionNumber": 0,
          "atomPositionNumberInMol": 35,
          "apClass": {
            "rule": "ATminus",
            "subClass": 0,
            "bndTyp": "ANY"
          },
          "dirVec": {
            "x": 0.0109,
            "y": -0.0071,
            "z": 0.0026
          }
        }
      ],
      "lstSymAPs": [],
      "mol": {
        "atoms": [
          {
            "elSymbol": "ATM",
            "p3d": {
              "x": -0.0096,
              "y": 0.0045,
              "z": -0.0011
            }
          }
        ],
        "bonds": []
      },
      "vertexId": 170965,
      "buildingBlockId": 78,
      "buildingBlockType": "FRAGMENT",
      "isRCV": true,
      "properties": {
        "ATTACHMENT_POINTS": "1#ATminus:0:ANY:0.0109%-0.0071%0.0026 "
      },
      "uniquefyingPropertyKeys": [],
      "allowedMutationTypes": [
        "DELETE",
        "EXTEND",
        "CHANGEBRANCH",
        "CHANGELINK",
        "ADDLINK",
        "DELETELINK",
        "DELETECHAIN"
      ],
      "vertexType": "MolecularFragment"
    },
    {
      "lstAPs": [
        {
          "id": 874900,
          "atomPositionNumber": 0,
          "atomPositionNumberInMol": 12,
          "apClass": {
            "rule": "LPyrrolidinylideneSubCGammaS",
            "subClass": 1,
            "bndTyp": "SINGLE"
          },
          "dirVec": {
            "x": 1.4399,
            "y": 1.6623,
            "z": 2.2907
          }
        }
      ],
      "lstSymAPs": [],
      "mol": {
        "atoms": [
          {
            "elSymbol": "C",
            "p3d": {
              "x": 2.8634,
              "y": 1.6303,
              "z": 1.7249
            }
          },
          {
            "elSymbol": "H",
            "p3d": {
              "x": 2.8236,
              "y": 1.7916,
              "z": 0.6345
            }
          },
          {
            "elSymbol": "H",
            "p3d": {
              "x": 3.4679,
              "y": 2.4143,
              "z": 2.1805
            }
          },
          {
            "elSymbol": "H",
            "p3d": {
              "x": 3.3186,
              "y": 0.6663,
              "z": 1.919
            }
          }
        ],
        "bonds": [
          {
            "atomIds": [
              1,
              0
            ],
            "bo": "SINGLE"
          },
          {
            "atomIds": [
              2,
              0
            ],
            "bo": "SINGLE"
          },
          {
            "atomIds": [
              3,
              0
            ],
            "bo": "SINGLE"
          }
        ]
      },
      "vertexId": 781494,
      "buildingBlockId": 15,
      "buildingBlockType": "FRAGMENT",
      "isRCV": false,
      "properties": {
        "ATTACHMENT_POINTS": "1#LPyrrolidinylideneSubCGammaS:1:SINGLE:1.4399%1.6623%2.2907 "
      },
      "uniquefyingPropertyKeys": [],
      "allowedMutationTypes": [
        "DELETE",
        "EXTEND",
        "CHANGEBRANCH",
        "CHANGELINK",
        "ADDLINK",
        "DELETELINK",
        "DELETECHAIN"
      ],
      "vertexType": "MolecularFragment"
    },
    {
      "lstAPs": [
        {
          "id": 874901,
          "atomPositionNumber": 0,
          "atomPositionNumberInMol": 16,
          "apClass": {
            "rule": "LPyrrolidinylideneSubCGammaS",
            "subClass": 1,
            "bndTyp": "SINGLE"
          },
          "dirVec": {
            "x": 1.4399,
            "y": 1.6623,
            "z": 2.2907
          }
        }
      ],
      "lstSymAPs": [],
      "mol": {
        "atoms": [
          {
            "elSymbol": "C",
            "p3d": {
              "x": 2.8634,
              "y": 1.6303,
              "z": 1.7249
            }
          },
          {
            "elSymbol": "H",
            "p3d": {
              "x": 2.8236,
              "y": 1.7916,
              "z": 0.6345
            }
          },
          {
            "elSymbol": "H",
            "p3d": {
              "x": 3.4679,
              "y": 2.4143,
              "z": 2.1805
            }
          },
          {
            "elSymbol": "H",
            "p3d": {
              "x": 3.3186,
              "y": 0.6663,
              "z": 1.919
            }
          }
        ],
        "bonds": [
          {
            "atomIds": [
              1,
              0
            ],
            "bo": "SINGLE"
          },
          {
            "atomIds": [
              2,
              0
            ],
            "bo": "SINGLE"
          },
          {
            "atomIds": [
              3,
              0
            ],
            "bo": "SINGLE"
          }
        ]
      },
      "vertexId": 781495,
      "buildingBlockId": 15,
      "buildingBlockType": "FRAGMENT",
      "isRCV": false,
      "properties": {
        "ATTACHMENT_POINTS": "1#LPyrrolidinylideneSubCGammaS:1:SINGLE:1.4399%1.6623%2.2907 "
      },
      "uniquefyingPropertyKeys": [],
      "allowedMutationTypes": [
        "DELETE",
        "EXTEND",
        "CHANGEBRANCH",
        "CHANGELINK",
        "ADDLINK",
        "DELETELINK",
        "DELETECHAIN"
      ],
      "vertexType": "MolecularFragment"
    },
    {
      "lstAPs": [
        {
          "id": 874902,
          "atomPositionNumber": 0,
          "atomPositionNumberInMol": 20,
          "apClass": {
            "rule": "LPyrrolidinylideneSubCGammaS",
            "subClass": 1,
            "bndTyp": "SINGLE"
          },
          "dirVec": {
            "x": 1.4399,
            "y": 1.6623,
            "z": 2.2907
          }
        }
      ],
      "lstSymAPs": [],
      "mol": {
        "atoms": [
          {
            "elSymbol": "C",
            "p3d": {
              "x": 2.8634,
              "y": 1.6303,
              "z": 1.7249
            }
          },
          {
            "elSymbol": "H",
            "p3d": {
              "x": 2.8236,
              "y": 1.7916,
              "z": 0.6345
            }
          },
          {
            "elSymbol": "H",
            "p3d": {
              "x": 3.4679,
              "y": 2.4143,
              "z": 2.1805
            }
          },
          {
            "elSymbol": "H",
            "p3d": {
              "x": 3.3186,
              "y": 0.6663,
              "z": 1.919
            }
          }
        ],
        "bonds": [
          {
            "atomIds": [
              1,
              0
            ],
            "bo": "SINGLE"
          },
          {
            "atomIds": [
              2,
              0
            ],
            "bo": "SINGLE"
          },
          {
            "atomIds": [
              3,
              0
            ],
            "bo": "SINGLE"
          }
        ]
      },
      "vertexId": 781491,
      "buildingBlockId": 15,
      "buildingBlockType": "FRAGMENT",
      "isRCV": false,
      "properties": {
        "ATTACHMENT_POINTS": "1#LPyrrolidinylideneSubCGammaS:1:SINGLE:1.4399%1.6623%2.2907 "
      },
      "uniquefyingPropertyKeys": [],
      "allowedMutationTypes": [
        "DELETE",
        "EXTEND",
        "CHANGEBRANCH",
        "CHANGELINK",
        "ADDLINK",
        "DELETELINK",
        "DELETECHAIN"
      ],
      "vertexType": "MolecularFragment"
    },
    {
      "lstAPs": [
        {
          "id": 874903,
          "atomPositionNumber": 0,
          "atomPositionNumberInMol": 24,
          "apClass": {
            "rule": "LPyrrolidinylideneSubCGammaS",
            "subClass": 1,
            "bndTyp": "SINGLE"
          },
          "dirVec": {
            "x": 1.4399,
            "y": 1.6623,
            "z": 2.2907
          }
        }
      ],
      "lstSymAPs": [],
      "mol": {
        "atoms": [
          {
            "elSymbol": "C",
            "p3d": {
              "x": 2.8634,
              "y": 1.6303,
              "z": 1.7249
            }
          },
          {
            "elSymbol": "H",
            "p3d": {
              "x": 2.8236,
              "y": 1.7916,
              "z": 0.6345
            }
          },
          {
            "elSymbol": "H",
            "p3d": {
              "x": 3.4679,
              "y": 2.4143,
              "z": 2.1805
            }
          },
          {
            "elSymbol": "H",
            "p3d": {
              "x": 3.3186,
              "y": 0.6663,
              "z": 1.919
            }
          }
        ],
        "bonds": [
          {
            "atomIds": [
              1,
              0
            ],
            "bo": "SINGLE"
          },
          {
            "atomIds": [
              2,
              0
            ],
            "bo": "SINGLE"
          },
          {
            "atomIds": [
              3,
              0
            ],
            "bo": "SINGLE"
          }
        ]
      },
      "vertexId": 781496,
      "buildingBlockId": 15,
      "buildingBlockType": "FRAGMENT",
      "isRCV": false,
      "properties": {
        "ATTACHMENT_POINTS": "1#LPyrrolidinylideneSubCGammaS:1:SINGLE:1.4399%1.6623%2.2907 "
      },
      "uniquefyingPropertyKeys": [],
      "allowedMutationTypes": [
        "DELETE",
        "EXTEND",
        "CHANGEBRANCH",
        "CHANGELINK",
        "ADDLINK",
        "DELETELINK",
        "DELETECHAIN"
      ],
      "vertexType": "MolecularFragment"
    }
  ],
  "gEdges": [
    {
      "srcAPID": 874802,
      "trgAPID": 874805,
      "bondType": "SINGLE"
    },
    {
      "srcAPID": 874803,
      "trgAPID": 874810,
      "bondType": "SINGLE"
    },
    {
      "srcAPID": 874804,
      "trgAPID": 874811,
      "bondType": "SINGLE"
    },
    {
      "srcAPID": 874800,
      "trgAPID": 874812,
      "bondType": "SINGLE"
    },
    {
      "srcAPID": 874801,
      "trgAPID": 874814,
      "bondType": "SINGLE"
    },
    {
      "srcAPID": 874813,
      "trgAPID": 874817,
      "bondType": "SINGLE"
    },
    {
      "srcAPID": 874815,
      "trgAPID": 874819,
      "bondType": "SINGLE"
    },
    {
      "srcAPID": 874818,
      "trgAPID": 874820,
      "bondType": "SINGLE"
    },
    {
      "srcAPID": 874816,
      "trgAPID": 874821,
      "bondType": "SINGLE"
    },
    {
      "srcAPID": 874807,
      "trgAPID": 874900,
      "bondType": "SINGLE"
    },
    {
      "srcAPID": 874808,
      "trgAPID": 874901,
      "bondType": "SINGLE"
    },
    {
      "srcAPID": 874806,
      "trgAPID": 874902,
      "bondType": "SINGLE"
    },
    {
      "srcAPID": 874809,
      "trgAPID": 874903,
      "bondType": "SINGLE"
    }
  ],
  "gRings": [
    {
      "vertices": [
        170958,
        170957,
        170956,
        170960,
        170962,
        170965
      ],
      "bndTyp": "SINGLE"
    },
    {
      "vertices": [
        170959,
        170957,
        170956,
        170961,
        170963,
        170964
      ],
      "bndTyp": "SINGLE"
    }
  ],
  "symVertices": [
    {
      "symIds": [
        170958,
        170959
      ]
    },
    {
      "symIds": [
        170960,
        170961
      ]
    },
    {
      "symIds": [
        170962,
        170963
      ]
    },
    {
      "symIds": [
        170964,
        170965
      ]
    },
    {
      "symIds": [
        781494,
        781495,
        781491,
        781496
      ]
    }
  ]
}

> <SMILES>
[Pt]12(C#O)[C]3N(C(C(N3C([H])([H])S(O1)(=O)=O)(C([H])([H])[H])C([H])([H])[H])(C([H])([H])[H])C([H])([H])[H])C([H])([H])S(O2)(=O)=O

$$$$
