M00020555
  CDK     05032209253D

 49 54  0  0  0  0  0  0  0  0999 V2000
   -2.0121    0.0175    0.0571 Pt  0  0  0  0  0  0  0  0  0  0  0  0
   -3.9285   -0.0832   -0.2253 C   0  0  0  0  0  0  0  0  0  0  0  0
   -5.0543   -0.1570   -0.4004 O   0  0  0  0  0  0  0  0  0  0  0  0
    0.2556    0.0803    0.3203 P   0  0  0  0  0  0  0  0  0  0  0  0
    1.0055    1.6211    1.0847 C   0  0  0  0  0  0  0  0  0  0  0  0
    1.7352    1.2026    2.1330 C   0  0  0  0  0  0  0  0  0  0  0  0
    1.7362   -0.2498    2.4243 C   0  0  0  0  0  0  0  0  0  0  0  0
    1.0079   -1.0396    1.6175 C   0  0  0  0  0  0  0  0  0  0  0  0
    2.2951    1.8589    2.7941 H   0  0  0  0  0  0  0  0  0  0  0  0
    2.2970   -0.6016    3.2865 H   0  0  0  0  0  0  0  0  0  0  0  0
    1.0373   -0.2595   -1.3109 C   0  0  0  0  0  0  0  0  0  0  0  0
    2.1168   -0.7796   -3.8136 C   0  0  0  0  0  0  0  0  0  0  0  0
    0.1779   -0.4348   -2.3980 C   0  0  0  0  0  0  0  0  0  0  0  0
    2.4244   -0.3369   -1.4493 C   0  0  0  0  0  0  0  0  0  0  0  0
    2.9634   -0.5997   -2.7128 C   0  0  0  0  0  0  0  0  0  0  0  0
    0.7301   -0.6977   -3.6586 C   0  0  0  0  0  0  0  0  0  0  0  0
   -0.9155   -0.3727   -2.2953 H   0  0  0  0  0  0  0  0  0  0  0  0
    3.0986   -0.1982   -0.6023 H   0  0  0  0  0  0  0  0  0  0  0  0
    4.0427   -0.6647   -2.8412 H   0  0  0  0  0  0  0  0  0  0  0  0
    0.0749   -0.8386   -4.5178 H   0  0  0  0  0  0  0  0  0  0  0  0
    2.5423   -0.9850   -4.7964 H   0  0  0  0  0  0  0  0  0  0  0  0
   -2.0818   -2.3212    0.1868 S   0  0  0  0  0  0  0  0  0  0  0  0
    0.7043   -2.4872    1.6814 C   0  0  0  0  0  0  0  0  0  0  0  0
   -0.5620   -2.7149    2.4760 C   0  0  0  0  0  0  0  0  0  0  0  0
   -0.4519   -3.0286    3.8418 C   0  0  0  0  0  0  0  0  0  0  0  0
   -1.5934   -3.2566    4.6127 C   0  0  0  0  0  0  0  0  0  0  0  0
   -2.8627   -3.1718    4.0304 C   0  0  0  0  0  0  0  0  0  0  0  0
   -2.9858   -2.8554    2.6753 C   0  0  0  0  0  0  0  0  0  0  0  0
   -1.8400   -2.6238    1.9059 C   0  0  0  0  0  0  0  0  0  0  0  0
    0.6069   -2.9485    0.6683 H   0  0  0  0  0  0  0  0  0  0  0  0
    1.5529   -3.0380    2.1476 H   0  0  0  0  0  0  0  0  0  0  0  0
    0.5307   -3.0968    4.3043 H   0  0  0  0  0  0  0  0  0  0  0  0
   -1.4951   -3.5022    5.6689 H   0  0  0  0  0  0  0  0  0  0  0  0
   -3.7523   -3.3528    4.6307 H   0  0  0  0  0  0  0  0  0  0  0  0
   -3.9755   -2.7952    2.2199 H   0  0  0  0  0  0  0  0  0  0  0  0
   -2.2705    2.3408   -0.1359 S   0  0  0  0  0  0  0  0  0  0  0  0
    0.7024    2.9852    0.6031 C   0  0  0  0  0  0  0  0  0  0  0  0
    0.3046    3.0541   -0.8496 C   0  0  0  0  0  0  0  0  0  0  0  0
    1.2668    3.4187   -1.8050 C   0  0  0  0  0  0  0  0  0  0  0  0
    0.9242    3.5152   -3.1559 C   0  0  0  0  0  0  0  0  0  0  0  0
   -0.3846    3.2472   -3.5701 C   0  0  0  0  0  0  0  0  0  0  0  0
   -1.3495    2.8736   -2.6306 C   0  0  0  0  0  0  0  0  0  0  0  0
   -1.0015    2.7712   -1.2806 C   0  0  0  0  0  0  0  0  0  0  0  0
   -0.1249    3.4116    1.2351 H   0  0  0  0  0  0  0  0  0  0  0  0
    1.5670    3.6609    0.7962 H   0  0  0  0  0  0  0  0  0  0  0  0
    2.2877    3.6307   -1.4928 H   0  0  0  0  0  0  0  0  0  0  0  0
    1.6780    3.8024   -3.8871 H   0  0  0  0  0  0  0  0  0  0  0  0
   -0.6525    3.3312   -4.6216 H   0  0  0  0  0  0  0  0  0  0  0  0
   -2.3723    2.6683   -2.9512 H   0  0  0  0  0  0  0  0  0  0  0  0
  2  3  3  0  0  0  0
  1  2  1  0  0  0  0
  5  4  1  0  0  0  0
  6  5  2  0  0  0  0
  7  6  1  0  0  0  0
  7  8  2  0  0  0  0
  8  4  1  0  0  0  0
  6  9  1  0  0  0  0
  7 10  1  0  0  0  0
  1  4  1  0  0  0  0
 11 14  1  0  0  0  0
 14 15  2  0  0  0  0
 12 15  1  0  0  0  0
 12 16  2  0  0  0  0
 13 16  1  0  0  0  0
 11 13  2  0  0  0  0
 15 19  1  0  0  0  0
 16 20  1  0  0  0  0
 12 21  1  0  0  0  0
 13 17  1  0  0  0  0
 14 18  1  0  0  0  0
  4 11  1  0  0  0  0
  1 22  1  0  0  0  0
 23 24  1  0  0  0  0
 24 25  1  0  0  0  0
 25 26  2  0  0  0  0
 26 27  1  0  0  0  0
 27 28  2  0  0  0  0
 28 29  1  0  0  0  0
 24 29  2  0  0  0  0
 23 30  1  0  0  0  0
 23 31  1  0  0  0  0
 25 32  1  0  0  0  0
 26 33  1  0  0  0  0
 27 34  1  0  0  0  0
 28 35  1  0  0  0  0
 22 29  1  0  0  0  0
  1 36  1  0  0  0  0
 37 38  1  0  0  0  0
 38 39  1  0  0  0  0
 39 40  2  0  0  0  0
 40 41  1  0  0  0  0
 41 42  2  0  0  0  0
 42 43  1  0  0  0  0
 38 43  2  0  0  0  0
 37 44  1  0  0  0  0
 37 45  1  0  0  0  0
 39 46  1  0  0  0  0
 40 47  1  0  0  0  0
 41 48  1  0  0  0  0
 42 49  1  0  0  0  0
 36 43  1  0  0  0  0
  8 23  1  0  0  0  0
  5 37  1  0  0  0  0
M  END
> <PM6_ENERGY>
333.515

> <UID>
IPKVIEIMZXULJH-HICOZVIGNA-L

> <FITNESS>
1.14172

> <GCODE>
31634

> <GraphENC>
31634 189818_1_0,189819_48_1,189820_78_1,189821_78_1,189822_74_1,189823_74_1,189824_68_1,189825_68_1,189826_79_1,189827_79_1,1093250_29_1, 189818_2_189819_1_SINGLE_scaff:0_MPhosphole:1,189819_3_189820_0_SINGLE_LPhospholeSubAlpha:0_ATplus:0,189819_2_189821_0_SINGLE_LPhospholeSubAlpha:0_ATplus:0,189818_1_189822_0_SINGLE_Xlig:0_Xlig:1,189818_0_189823_0_SINGLE_Xlig:0_Xlig:1,189822_1_189824_1_SINGLE_bridge:1_bridge:0,189823_1_189825_1_SINGLE_bridge:1_bridge:0,189824_0_189826_0_SINGLE_bridge:0_ATminus:0,189825_0_189827_0_SINGLE_bridge:0_ATminus:0,189819_0_1093250_0_SINGLE_LPhospholeSubR:0_SubArS:1, DENOPTIMRing [vertices=[189820_78_1, 189819_48_1, 189818_1_0, 189822_74_1, 189824_68_1, 189826_79_1]] DENOPTIMRing [vertices=[189821_78_1, 189819_48_1, 189818_1_0, 189823_74_1, 189825_68_1, 189827_79_1]] SymmetricSet [symIds=[189820, 189821]] SymmetricSet [symIds=[189822, 189823]] SymmetricSet [symIds=[189824, 189825]] SymmetricSet [symIds=[189826, 189827]] 

> <GraphJson>
{
  "graphId": 31634,
  "gVertices": [
    {
      "lstAPs": [
        {
          "id": 1374621,
          "atomPositionNumber": 0,
          "atomPositionNumberInMol": 0,
          "apClass": {
            "rule": "Xlig",
            "subClass": 0,
            "bndTyp": "SINGLE"
          },
          "dirVec": {
            "x": -2.3339,
            "y": -0.0087,
            "z": 0.8172
          }
        },
        {
          "id": 1374622,
          "atomPositionNumber": 0,
          "atomPositionNumberInMol": 0,
          "apClass": {
            "rule": "Xlig",
            "subClass": 0,
            "bndTyp": "SINGLE"
          },
          "dirVec": {
            "x": 2.336,
            "y": -5.0E-4,
            "z": 0.829
          }
        },
        {
          "id": 1374623,
          "atomPositionNumber": 0,
          "atomPositionNumberInMol": 0,
          "apClass": {
            "rule": "scaff",
            "subClass": 0,
            "bndTyp": "SINGLE"
          },
          "dirVec": {
            "x": -0.0095,
            "y": 0.0046,
            "z": -1.7113
          }
        }
      ],
      "lstSymAPs": [
        {
          "symIds": [
            0,
            1
          ]
        }
      ],
      "mol": {
        "atoms": [
          {
            "elSymbol": "Pt",
            "p3d": {
              "x": -0.0098,
              "y": 0.0049,
              "z": 0.6289
            }
          },
          {
            "elSymbol": "C",
            "p3d": {
              "x": -6.0E-4,
              "y": 0.0016,
              "z": 2.5609
            }
          },
          {
            "elSymbol": "O",
            "p3d": {
              "x": 0.0025,
              "y": -0.0041,
              "z": 3.6974
            }
          },
          {
            "elSymbol": "Du",
            "p3d": {
              "x": -0.007,
              "y": 1.0013,
              "z": 0.6372
            }
          },
          {
            "elSymbol": "Du",
            "p3d": {
              "x": -0.0014,
              "y": 0.9902,
              "z": 2.5698
            }
          }
        ],
        "bonds": [
          {
            "atomIds": [
              1,
              2
            ],
            "bo": "TRIPLE"
          },
          {
            "atomIds": [
              0,
              1
            ],
            "bo": "SINGLE"
          },
          {
            "atomIds": [
              3,
              0
            ],
            "bo": "SINGLE"
          },
          {
            "atomIds": [
              4,
              1
            ],
            "bo": "SINGLE"
          }
        ]
      },
      "vertexId": 189818,
      "buildingBlockId": 0,
      "buildingBlockType": "SCAFFOLD",
      "isRCV": false,
      "properties": {
        "ATTACHMENT_POINTS": "1#Xlig:0:SINGLE:-2.3339%-0.0087%0.8172,Xlig:0:SINGLE:2.3360%-0.0005%0.8290,scaff:0:SINGLE:-0.0095%0.0046%-1.7113 "
      },
      "uniquefyingPropertyKeys": [],
      "allowedMutationTypes": [
        "DELETE",
        "EXTEND",
        "CHANGEBRANCH",
        "CHANGELINK",
        "ADDLINK",
        "DELETELINK",
        "DELETECHAIN"
      ],
      "vertexType": "MolecularFragment"
    },
    {
      "lstAPs": [
        {
          "id": 1374624,
          "atomPositionNumber": 0,
          "atomPositionNumberInMol": 5,
          "apClass": {
            "rule": "LPhospholeSubR",
            "subClass": 0,
            "bndTyp": "SINGLE"
          },
          "dirVec": {
            "x": 1.5894695221251027,
            "y": -0.22647507787298762,
            "z": -2.5403412806055052
          }
        },
        {
          "id": 1374625,
          "atomPositionNumber": 0,
          "atomPositionNumberInMol": 5,
          "apClass": {
            "rule": "MPhosphole",
            "subClass": 1,
            "bndTyp": "SINGLE"
          },
          "dirVec": {
            "x": -0.00979843638917681,
            "y": 0.00489843638917665,
            "z": 0.6167027931710318
          }
        },
        {
          "id": 1374626,
          "atomPositionNumber": 1,
          "atomPositionNumberInMol": 6,
          "apClass": {
            "rule": "LPhospholeSubAlpha",
            "subClass": 0,
            "bndTyp": "SINGLE"
          },
          "dirVec": {
            "x": -1.247747240951509,
            "y": -2.5654540058913766,
            "z": -2.537691072493987
          }
        },
        {
          "id": 1374627,
          "atomPositionNumber": 4,
          "atomPositionNumberInMol": 9,
          "apClass": {
            "rule": "LPhospholeSubAlpha",
            "subClass": 0,
            "bndTyp": "SINGLE"
          },
          "dirVec": {
            "x": -0.30790923671386095,
            "y": 2.9691196160259756,
            "z": -2.0438327128732703
          }
        }
      ],
      "lstSymAPs": [
        {
          "symIds": [
            2,
            3
          ]
        }
      ],
      "mol": {
        "atoms": [
          {
            "elSymbol": "P",
            "p3d": {
              "x": -0.009501563610823188,
              "y": 0.00460156361082335,
              "z": -1.6991027931710323
            }
          },
          {
            "elSymbol": "C",
            "p3d": {
              "x": -1.1878504094745181,
              "y": -1.053908140033033,
              "z": -2.605846739797364
            }
          },
          {
            "elSymbol": "C",
            "p3d": {
              "x": -1.94625229218355,
              "y": -0.25710823894232065,
              "z": -3.3375765478038635
            }
          },
          {
            "elSymbol": "C",
            "p3d": {
              "x": -1.6650510209052938,
              "y": 1.186522454492756,
              "z": -3.2249618240611233
            }
          },
          {
            "elSymbol": "C",
            "p3d": {
              "x": -0.7253388184579733,
              "y": 1.556006149283925,
              "z": -2.4003663499921255
            }
          },
          {
            "elSymbol": "H",
            "p3d": {
              "x": -2.7100366647175433,
              "y": -0.7233077954963977,
              "z": -3.938878065963961
            }
          },
          {
            "elSymbol": "H",
            "p3d": {
              "x": -2.1614501712183682,
              "y": 2.0012282110518838,
              "z": -3.749352083121948
            }
          }
        ],
        "bonds": [
          {
            "atomIds": [
              1,
              0
            ],
            "bo": "SINGLE"
          },
          {
            "atomIds": [
              2,
              1
            ],
            "bo": "DOUBLE"
          },
          {
            "atomIds": [
              3,
              2
            ],
            "bo": "SINGLE"
          },
          {
            "atomIds": [
              3,
              4
            ],
            "bo": "DOUBLE"
          },
          {
            "atomIds": [
              4,
              0
            ],
            "bo": "SINGLE"
          },
          {
            "atomIds": [
              2,
              5
            ],
            "bo": "SINGLE"
          },
          {
            "atomIds": [
              3,
              6
            ],
            "bo": "SINGLE"
          }
        ]
      },
      "vertexId": 189819,
      "buildingBlockId": 47,
      "buildingBlockType": "FRAGMENT",
      "isRCV": false,
      "properties": {
        "ATTACHMENT_POINTS": "1#LPhospholeSubR:0:SINGLE:1.5895%-0.2265%-2.5403,MPhosphole:1:SINGLE:-0.0098%0.0049%0.6167 2#LPhospholeSubAlpha:0:SINGLE:-1.2477%-2.5655%-2.5377 5#LPhospholeSubAlpha:0:SINGLE:-0.3079%2.9691%-2.0438 "
      },
      "uniquefyingPropertyKeys": [],
      "allowedMutationTypes": [
        "DELETE",
        "EXTEND",
        "CHANGEBRANCH",
        "CHANGELINK",
        "ADDLINK",
        "DELETELINK",
        "DELETECHAIN"
      ],
      "vertexType": "MolecularFragment"
    },
    {
      "lstAPs": [
        {
          "id": 1374628,
          "atomPositionNumber": 0,
          "atomPositionNumberInMol": 12,
          "apClass": {
            "rule": "ATplus",
            "subClass": 0,
            "bndTyp": "ANY"
          },
          "dirVec": {
            "x": -0.30790923671386095,
            "y": 2.9691196160259756,
            "z": -2.0438327128732703
          }
        }
      ],
      "lstSymAPs": [],
      "mol": {
        "atoms": [
          {
            "elSymbol": "ATP",
            "p3d": {
              "x": -0.30212906136304096,
              "y": 2.9886870927588087,
              "z": -2.0388957677425443
            }
          }
        ],
        "bonds": []
      },
      "vertexId": 189820,
      "buildingBlockId": 77,
      "buildingBlockType": "FRAGMENT",
      "isRCV": true,
      "properties": {
        "ATTACHMENT_POINTS": "1#ATplus:0:ANY:-0.3079%2.9691%-2.0438 "
      },
      "uniquefyingPropertyKeys": [],
      "allowedMutationTypes": [
        "DELETE",
        "EXTEND",
        "CHANGEBRANCH",
        "CHANGELINK",
        "ADDLINK",
        "DELETELINK",
        "DELETECHAIN"
      ],
      "vertexType": "MolecularFragment"
    },
    {
      "lstAPs": [
        {
          "id": 1374629,
          "atomPositionNumber": 0,
          "atomPositionNumberInMol": 13,
          "apClass": {
            "rule": "ATplus",
            "subClass": 0,
            "bndTyp": "ANY"
          },
          "dirVec": {
            "x": -1.247747240951509,
            "y": -2.5654540058913766,
            "z": -2.537691072493987
          }
        }
      ],
      "lstSymAPs": [],
      "mol": {
        "atoms": [
          {
            "elSymbol": "ATP",
            "p3d": {
              "x": -1.248577585256087,
              "y": -2.5864084281850874,
              "z": -2.536746236702601
            }
          }
        ],
        "bonds": []
      },
      "vertexId": 189821,
      "buildingBlockId": 77,
      "buildingBlockType": "FRAGMENT",
      "isRCV": true,
      "properties": {
        "ATTACHMENT_POINTS": "1#ATplus:0:ANY:-1.2477%-2.5655%-2.5377 "
      },
      "uniquefyingPropertyKeys": [],
      "allowedMutationTypes": [
        "DELETE",
        "EXTEND",
        "CHANGEBRANCH",
        "CHANGELINK",
        "ADDLINK",
        "DELETELINK",
        "DELETECHAIN"
      ],
      "vertexType": "MolecularFragment"
    },
    {
      "lstAPs": [
        {
          "id": 1374630,
          "atomPositionNumber": 0,
          "atomPositionNumberInMol": 25,
          "apClass": {
            "rule": "Xlig",
            "subClass": 1,
            "bndTyp": "SINGLE"
          },
          "dirVec": {
            "x": -0.102,
            "y": 0.0185,
            "z": -1.0265
          }
        },
        {
          "id": 1374631,
          "atomPositionNumber": 0,
          "atomPositionNumberInMol": 25,
          "apClass": {
            "rule": "bridge",
            "subClass": 1,
            "bndTyp": "SINGLE"
          },
          "dirVec": {
            "x": -0.626,
            "y": 2.4866,
            "z": 0.7805
          }
        }
      ],
      "lstSymAPs": [],
      "mol": {
        "atoms": [
          {
            "elSymbol": "S",
            "p3d": {
              "x": -0.3267,
              "y": 2.3403,
              "z": -1.0022
            }
          }
        ],
        "bonds": []
      },
      "vertexId": 189822,
      "buildingBlockId": 73,
      "buildingBlockType": "FRAGMENT",
      "isRCV": false,
      "properties": {
        "ATTACHMENT_POINTS": "1#Xlig:1:SINGLE:-0.1020%0.0185%-1.0265,bridge:1:SINGLE:-0.6260%2.4866%0.7805 "
      },
      "uniquefyingPropertyKeys": [],
      "allowedMutationTypes": [
        "DELETE",
        "EXTEND",
        "CHANGEBRANCH",
        "CHANGELINK",
        "ADDLINK",
        "DELETELINK",
        "DELETECHAIN"
      ],
      "vertexType": "MolecularFragment"
    },
    {
      "lstAPs": [
        {
          "id": 1374632,
          "atomPositionNumber": 0,
          "atomPositionNumberInMol": 40,
          "apClass": {
            "rule": "Xlig",
            "subClass": 1,
            "bndTyp": "SINGLE"
          },
          "dirVec": {
            "x": -0.102,
            "y": 0.0185,
            "z": -1.0265
          }
        },
        {
          "id": 1374633,
          "atomPositionNumber": 0,
          "atomPositionNumberInMol": 40,
          "apClass": {
            "rule": "bridge",
            "subClass": 1,
            "bndTyp": "SINGLE"
          },
          "dirVec": {
            "x": -0.626,
            "y": 2.4866,
            "z": 0.7805
          }
        }
      ],
      "lstSymAPs": [],
      "mol": {
        "atoms": [
          {
            "elSymbol": "S",
            "p3d": {
              "x": -0.3267,
              "y": 2.3403,
              "z": -1.0022
            }
          }
        ],
        "bonds": []
      },
      "vertexId": 189823,
      "buildingBlockId": 73,
      "buildingBlockType": "FRAGMENT",
      "isRCV": false,
      "properties": {
        "ATTACHMENT_POINTS": "1#Xlig:1:SINGLE:-0.1020%0.0185%-1.0265,bridge:1:SINGLE:-0.6260%2.4866%0.7805 "
      },
      "uniquefyingPropertyKeys": [],
      "allowedMutationTypes": [
        "DELETE",
        "EXTEND",
        "CHANGEBRANCH",
        "CHANGELINK",
        "ADDLINK",
        "DELETELINK",
        "DELETECHAIN"
      ],
      "vertexType": "MolecularFragment"
    },
    {
      "lstAPs": [
        {
          "id": 1374634,
          "atomPositionNumber": 0,
          "atomPositionNumberInMol": 26,
          "apClass": {
            "rule": "bridge",
            "subClass": 0,
            "bndTyp": "SINGLE"
          },
          "dirVec": {
            "x": -2.5958,
            "y": -0.6501,
            "z": -0.7558
          }
        },
        {
          "id": 1374635,
          "atomPositionNumber": 6,
          "atomPositionNumberInMol": 32,
          "apClass": {
            "rule": "bridge",
            "subClass": 0,
            "bndTyp": "SINGLE"
          },
          "dirVec": {
            "x": -0.8149,
            "y": 2.0931,
            "z": 0.1475
          }
        }
      ],
      "lstSymAPs": [],
      "mol": {
        "atoms": [
          {
            "elSymbol": "C",
            "p3d": {
              "x": -1.8258,
              "y": -0.5811,
              "z": 0.5645
            }
          },
          {
            "elSymbol": "C",
            "p3d": {
              "x": -0.3615,
              "y": -0.3647,
              "z": 0.2814
            }
          },
          {
            "elSymbol": "C",
            "p3d": {
              "x": 0.4975,
              "y": -1.4461,
              "z": 0.2179
            }
          },
          {
            "elSymbol": "C",
            "p3d": {
              "x": 1.8404,
              "y": -1.2477,
              "z": -0.0418
            }
          },
          {
            "elSymbol": "C",
            "p3d": {
              "x": 2.3248,
              "y": 0.0323,
              "z": -0.2386
            }
          },
          {
            "elSymbol": "C",
            "p3d": {
              "x": 1.4658,
              "y": 1.1133,
              "z": -0.1761
            }
          },
          {
            "elSymbol": "C",
            "p3d": {
              "x": 0.1217,
              "y": 0.9144,
              "z": 0.0794
            }
          },
          {
            "elSymbol": "H",
            "p3d": {
              "x": -2.206,
              "y": 0.246,
              "z": 1.164
            }
          },
          {
            "elSymbol": "H",
            "p3d": {
              "x": -1.956,
              "y": -1.5155,
              "z": 1.1104
            }
          },
          {
            "elSymbol": "H",
            "p3d": {
              "x": 0.1192,
              "y": -2.446,
              "z": 0.3716
            }
          },
          {
            "elSymbol": "H",
            "p3d": {
              "x": 2.5116,
              "y": -2.0924,
              "z": -0.0906
            }
          },
          {
            "elSymbol": "H",
            "p3d": {
              "x": 3.3743,
              "y": 0.1874,
              "z": -0.4409
            }
          },
          {
            "elSymbol": "H",
            "p3d": {
              "x": 1.8441,
              "y": 2.1132,
              "z": -0.3295
            }
          }
        ],
        "bonds": [
          {
            "atomIds": [
              0,
              1
            ],
            "bo": "SINGLE"
          },
          {
            "atomIds": [
              1,
              2
            ],
            "bo": "SINGLE"
          },
          {
            "atomIds": [
              2,
              3
            ],
            "bo": "DOUBLE"
          },
          {
            "atomIds": [
              3,
              4
            ],
            "bo": "SINGLE"
          },
          {
            "atomIds": [
              4,
              5
            ],
            "bo": "DOUBLE"
          },
          {
            "atomIds": [
              5,
              6
            ],
            "bo": "SINGLE"
          },
          {
            "atomIds": [
              1,
              6
            ],
            "bo": "DOUBLE"
          },
          {
            "atomIds": [
              0,
              7
            ],
            "bo": "SINGLE"
          },
          {
            "atomIds": [
              0,
              8
            ],
            "bo": "SINGLE"
          },
          {
            "atomIds": [
              2,
              9
            ],
            "bo": "SINGLE"
          },
          {
            "atomIds": [
              3,
              10
            ],
            "bo": "SINGLE"
          },
          {
            "atomIds": [
              4,
              11
            ],
            "bo": "SINGLE"
          },
          {
            "atomIds": [
              5,
              12
            ],
            "bo": "SINGLE"
          }
        ]
      },
      "vertexId": 189824,
      "buildingBlockId": 67,
      "buildingBlockType": "FRAGMENT",
      "isRCV": false,
      "properties": {
        "ATTACHMENT_POINTS": "1#bridge:0:SINGLE:-2.5958%-0.6501%-0.7558 7#bridge:0:SINGLE:-0.8149%2.0931%0.1475 "
      },
      "uniquefyingPropertyKeys": [],
      "allowedMutationTypes": [
        "DELETE",
        "EXTEND",
        "CHANGEBRANCH",
        "CHANGELINK",
        "ADDLINK",
        "DELETELINK",
        "DELETECHAIN"
      ],
      "vertexType": "MolecularFragment"
    },
    {
      "lstAPs": [
        {
          "id": 1374636,
          "atomPositionNumber": 0,
          "atomPositionNumberInMol": 41,
          "apClass": {
            "rule": "bridge",
            "subClass": 0,
            "bndTyp": "SINGLE"
          },
          "dirVec": {
            "x": -2.5958,
            "y": -0.6501,
            "z": -0.7558
          }
        },
        {
          "id": 1374637,
          "atomPositionNumber": 6,
          "atomPositionNumberInMol": 47,
          "apClass": {
            "rule": "bridge",
            "subClass": 0,
            "bndTyp": "SINGLE"
          },
          "dirVec": {
            "x": -0.8149,
            "y": 2.0931,
            "z": 0.1475
          }
        }
      ],
      "lstSymAPs": [],
      "mol": {
        "atoms": [
          {
            "elSymbol": "C",
            "p3d": {
              "x": -1.8258,
              "y": -0.5811,
              "z": 0.5645
            }
          },
          {
            "elSymbol": "C",
            "p3d": {
              "x": -0.3615,
              "y": -0.3647,
              "z": 0.2814
            }
          },
          {
            "elSymbol": "C",
            "p3d": {
              "x": 0.4975,
              "y": -1.4461,
              "z": 0.2179
            }
          },
          {
            "elSymbol": "C",
            "p3d": {
              "x": 1.8404,
              "y": -1.2477,
              "z": -0.0418
            }
          },
          {
            "elSymbol": "C",
            "p3d": {
              "x": 2.3248,
              "y": 0.0323,
              "z": -0.2386
            }
          },
          {
            "elSymbol": "C",
            "p3d": {
              "x": 1.4658,
              "y": 1.1133,
              "z": -0.1761
            }
          },
          {
            "elSymbol": "C",
            "p3d": {
              "x": 0.1217,
              "y": 0.9144,
              "z": 0.0794
            }
          },
          {
            "elSymbol": "H",
            "p3d": {
              "x": -2.206,
              "y": 0.246,
              "z": 1.164
            }
          },
          {
            "elSymbol": "H",
            "p3d": {
              "x": -1.956,
              "y": -1.5155,
              "z": 1.1104
            }
          },
          {
            "elSymbol": "H",
            "p3d": {
              "x": 0.1192,
              "y": -2.446,
              "z": 0.3716
            }
          },
          {
            "elSymbol": "H",
            "p3d": {
              "x": 2.5116,
              "y": -2.0924,
              "z": -0.0906
            }
          },
          {
            "elSymbol": "H",
            "p3d": {
              "x": 3.3743,
              "y": 0.1874,
              "z": -0.4409
            }
          },
          {
            "elSymbol": "H",
            "p3d": {
              "x": 1.8441,
              "y": 2.1132,
              "z": -0.3295
            }
          }
        ],
        "bonds": [
          {
            "atomIds": [
              0,
              1
            ],
            "bo": "SINGLE"
          },
          {
            "atomIds": [
              1,
              2
            ],
            "bo": "SINGLE"
          },
          {
            "atomIds": [
              2,
              3
            ],
            "bo": "DOUBLE"
          },
          {
            "atomIds": [
              3,
              4
            ],
            "bo": "SINGLE"
          },
          {
            "atomIds": [
              4,
              5
            ],
            "bo": "DOUBLE"
          },
          {
            "atomIds": [
              5,
              6
            ],
            "bo": "SINGLE"
          },
          {
            "atomIds": [
              1,
              6
            ],
            "bo": "DOUBLE"
          },
          {
            "atomIds": [
              0,
              7
            ],
            "bo": "SINGLE"
          },
          {
            "atomIds": [
              0,
              8
            ],
            "bo": "SINGLE"
          },
          {
            "atomIds": [
              2,
              9
            ],
            "bo": "SINGLE"
          },
          {
            "atomIds": [
              3,
              10
            ],
            "bo": "SINGLE"
          },
          {
            "atomIds": [
              4,
              11
            ],
            "bo": "SINGLE"
          },
          {
            "atomIds": [
              5,
              12
            ],
            "bo": "SINGLE"
          }
        ]
      },
      "vertexId": 189825,
      "buildingBlockId": 67,
      "buildingBlockType": "FRAGMENT",
      "isRCV": false,
      "properties": {
        "ATTACHMENT_POINTS": "1#bridge:0:SINGLE:-2.5958%-0.6501%-0.7558 7#bridge:0:SINGLE:-0.8149%2.0931%0.1475 "
      },
      "uniquefyingPropertyKeys": [],
      "allowedMutationTypes": [
        "DELETE",
        "EXTEND",
        "CHANGEBRANCH",
        "CHANGELINK",
        "ADDLINK",
        "DELETELINK",
        "DELETECHAIN"
      ],
      "vertexType": "MolecularFragment"
    },
    {
      "lstAPs": [
        {
          "id": 1374638,
          "atomPositionNumber": 0,
          "atomPositionNumberInMol": 39,
          "apClass": {
            "rule": "ATminus",
            "subClass": 0,
            "bndTyp": "ANY"
          },
          "dirVec": {
            "x": 0.0109,
            "y": -0.0071,
            "z": 0.0026
          }
        }
      ],
      "lstSymAPs": [],
      "mol": {
        "atoms": [
          {
            "elSymbol": "ATM",
            "p3d": {
              "x": -0.0096,
              "y": 0.0045,
              "z": -0.0011
            }
          }
        ],
        "bonds": []
      },
      "vertexId": 189826,
      "buildingBlockId": 78,
      "buildingBlockType": "FRAGMENT",
      "isRCV": true,
      "properties": {
        "ATTACHMENT_POINTS": "1#ATminus:0:ANY:0.0109%-0.0071%0.0026 "
      },
      "uniquefyingPropertyKeys": [],
      "allowedMutationTypes": [
        "DELETE",
        "EXTEND",
        "CHANGEBRANCH",
        "CHANGELINK",
        "ADDLINK",
        "DELETELINK",
        "DELETECHAIN"
      ],
      "vertexType": "MolecularFragment"
    },
    {
      "lstAPs": [
        {
          "id": 1374639,
          "atomPositionNumber": 0,
          "atomPositionNumberInMol": 54,
          "apClass": {
            "rule": "ATminus",
            "subClass": 0,
            "bndTyp": "ANY"
          },
          "dirVec": {
            "x": 0.0109,
            "y": -0.0071,
            "z": 0.0026
          }
        }
      ],
      "lstSymAPs": [],
      "mol": {
        "atoms": [
          {
            "elSymbol": "ATM",
            "p3d": {
              "x": -0.0096,
              "y": 0.0045,
              "z": -0.0011
            }
          }
        ],
        "bonds": []
      },
      "vertexId": 189827,
      "buildingBlockId": 78,
      "buildingBlockType": "FRAGMENT",
      "isRCV": true,
      "properties": {
        "ATTACHMENT_POINTS": "1#ATminus:0:ANY:0.0109%-0.0071%0.0026 "
      },
      "uniquefyingPropertyKeys": [],
      "allowedMutationTypes": [
        "DELETE",
        "EXTEND",
        "CHANGEBRANCH",
        "CHANGELINK",
        "ADDLINK",
        "DELETELINK",
        "DELETECHAIN"
      ],
      "vertexType": "MolecularFragment"
    },
    {
      "lstAPs": [
        {
          "id": 1374700,
          "atomPositionNumber": 0,
          "atomPositionNumberInMol": 14,
          "apClass": {
            "rule": "SubArS",
            "subClass": 1,
            "bndTyp": "SINGLE"
          },
          "dirVec": {
            "x": 0.2973,
            "y": 0.3873,
            "z": -0.6389
          }
        }
      ],
      "lstSymAPs": [],
      "mol": {
        "atoms": [
          {
            "elSymbol": "C",
            "p3d": {
              "x": 1.6995,
              "y": 0.5593,
              "z": -1.2083
            }
          },
          {
            "elSymbol": "C",
            "p3d": {
              "x": 4.2563,
              "y": 0.8754,
              "z": -2.2592
            }
          },
          {
            "elSymbol": "C",
            "p3d": {
              "x": 2.3334,
              "y": 1.79,
              "z": -1.1338
            }
          },
          {
            "elSymbol": "C",
            "p3d": {
              "x": 2.3422,
              "y": -0.5107,
              "z": -1.8125
            }
          },
          {
            "elSymbol": "C",
            "p3d": {
              "x": 3.612,
              "y": -0.3527,
              "z": -2.3321
            }
          },
          {
            "elSymbol": "C",
            "p3d": {
              "x": 3.6062,
              "y": 1.9513,
              "z": -1.6526
            }
          },
          {
            "elSymbol": "H",
            "p3d": {
              "x": 1.833,
              "y": 2.6461,
              "z": -0.6488
            }
          },
          {
            "elSymbol": "H",
            "p3d": {
              "x": 1.8361,
              "y": -1.4773,
              "z": -1.887
            }
          },
          {
            "elSymbol": "H",
            "p3d": {
              "x": 4.115,
              "y": -1.2043,
              "z": -2.8152
            }
          },
          {
            "elSymbol": "H",
            "p3d": {
              "x": 4.1097,
              "y": 2.9214,
              "z": -1.5842
            }
          },
          {
            "elSymbol": "H",
            "p3d": {
              "x": 5.2498,
              "y": 0.9926,
              "z": -2.665
            }
          }
        ],
        "bonds": [
          {
            "atomIds": [
              0,
              3
            ],
            "bo": "SINGLE"
          },
          {
            "atomIds": [
              3,
              4
            ],
            "bo": "DOUBLE"
          },
          {
            "atomIds": [
              1,
              4
            ],
            "bo": "SINGLE"
          },
          {
            "atomIds": [
              1,
              5
            ],
            "bo": "DOUBLE"
          },
          {
            "atomIds": [
              2,
              5
            ],
            "bo": "SINGLE"
          },
          {
            "atomIds": [
              0,
              2
            ],
            "bo": "DOUBLE"
          },
          {
            "atomIds": [
              4,
              8
            ],
            "bo": "SINGLE"
          },
          {
            "atomIds": [
              5,
              9
            ],
            "bo": "SINGLE"
          },
          {
            "atomIds": [
              1,
              10
            ],
            "bo": "SINGLE"
          },
          {
            "atomIds": [
              2,
              6
            ],
            "bo": "SINGLE"
          },
          {
            "atomIds": [
              3,
              7
            ],
            "bo": "SINGLE"
          }
        ]
      },
      "vertexId": 1093250,
      "buildingBlockId": 28,
      "buildingBlockType": "FRAGMENT",
      "isRCV": false,
      "properties": {
        "ATTACHMENT_POINTS": "1#SubArS:1:SINGLE:0.2973%0.3873%-0.6389 "
      },
      "uniquefyingPropertyKeys": [],
      "allowedMutationTypes": [
        "DELETE",
        "EXTEND",
        "CHANGEBRANCH",
        "CHANGELINK",
        "ADDLINK",
        "DELETELINK",
        "DELETECHAIN"
      ],
      "vertexType": "MolecularFragment"
    }
  ],
  "gEdges": [
    {
      "srcAPID": 1374623,
      "trgAPID": 1374625,
      "bondType": "SINGLE"
    },
    {
      "srcAPID": 1374627,
      "trgAPID": 1374628,
      "bondType": "SINGLE"
    },
    {
      "srcAPID": 1374626,
      "trgAPID": 1374629,
      "bondType": "SINGLE"
    },
    {
      "srcAPID": 1374622,
      "trgAPID": 1374630,
      "bondType": "SINGLE"
    },
    {
      "srcAPID": 1374621,
      "trgAPID": 1374632,
      "bondType": "SINGLE"
    },
    {
      "srcAPID": 1374631,
      "trgAPID": 1374635,
      "bondType": "SINGLE"
    },
    {
      "srcAPID": 1374633,
      "trgAPID": 1374637,
      "bondType": "SINGLE"
    },
    {
      "srcAPID": 1374634,
      "trgAPID": 1374638,
      "bondType": "SINGLE"
    },
    {
      "srcAPID": 1374636,
      "trgAPID": 1374639,
      "bondType": "SINGLE"
    },
    {
      "srcAPID": 1374624,
      "trgAPID": 1374700,
      "bondType": "SINGLE"
    }
  ],
  "gRings": [
    {
      "vertices": [
        189820,
        189819,
        189818,
        189822,
        189824,
        189826
      ],
      "bndTyp": "SINGLE"
    },
    {
      "vertices": [
        189821,
        189819,
        189818,
        189823,
        189825,
        189827
      ],
      "bndTyp": "SINGLE"
    }
  ],
  "symVertices": [
    {
      "symIds": [
        189820,
        189821
      ]
    },
    {
      "symIds": [
        189822,
        189823
      ]
    },
    {
      "symIds": [
        189824,
        189825
      ]
    },
    {
      "symIds": [
        189826,
        189827
      ]
    }
  ]
}

> <SMILES>
[Pt]12(C#O)[P]3(C(=C(C(=C3C(C=4C(=C(C(=C(C4S1)[H])[H])[H])[H])([H])[H])[H])[H])C(C=5C(=C(C(=C(C5S2)[H])[H])[H])[H])([H])[H])C=6C(=C(C(=C(C6[H])[H])[H])[H])[H]

$$$$
