M00016719
  CDK     05032209073D

 52 57  0  0  0  0  0  0  0  0999 V2000
    0.1589   -2.3514    1.1908 Pt  0  0  0  0  0  0  0  0  0  0  0  0
    0.2391   -4.2546    1.5597 C   0  0  0  0  0  0  0  0  0  0  0  0
    0.2982   -5.3754    1.7737 O   0  0  0  0  0  0  0  0  0  0  0  0
    0.1108   -0.1218    0.7789 P   0  0  0  0  0  0  0  0  0  0  0  0
    1.3494    0.4995   -0.4716 C   0  0  0  0  0  0  0  0  0  0  0  0
    0.6221    1.1801   -1.3689 C   0  0  0  0  0  0  0  0  0  0  0  0
    0.9699    1.9473   -2.6021 C   0  0  0  0  0  0  0  0  0  0  0  0
    1.5953    1.3404   -3.2876 H   0  0  0  0  0  0  0  0  0  0  0  0
    1.5740    2.8407   -2.3506 H   0  0  0  0  0  0  0  0  0  0  0  0
   -0.3708    2.3457   -3.2653 C   0  0  0  0  0  0  0  0  0  0  0  0
   -0.4560    1.8897   -4.2669 H   0  0  0  0  0  0  0  0  0  0  0  0
   -0.4227    3.4370   -3.4156 H   0  0  0  0  0  0  0  0  0  0  0  0
   -1.5223    1.8623   -2.3513 C   0  0  0  0  0  0  0  0  0  0  0  0
   -2.1362    2.7102   -1.9918 H   0  0  0  0  0  0  0  0  0  0  0  0
   -2.2180    1.1949   -2.8975 H   0  0  0  0  0  0  0  0  0  0  0  0
   -0.8787    1.1472   -1.2108 C   0  0  0  0  0  0  0  0  0  0  0  0
   -1.3793    0.4540   -0.1774 C   0  0  0  0  0  0  0  0  0  0  0  0
    0.4538   -0.2114    3.5074 C   0  0  0  0  0  0  0  0  0  0  0  0
    0.2647    0.8162    2.4032 C   0  0  0  0  0  0  0  0  0  0  0  0
    1.4051   -0.7690    3.4172 H   0  0  0  0  0  0  0  0  0  0  0  0
    0.4835    0.2810    4.4908 H   0  0  0  0  0  0  0  0  0  0  0  0
   -0.3556   -0.9610    3.5623 H   0  0  0  0  0  0  0  0  0  0  0  0
   -0.6380    1.4362    2.5790 H   0  0  0  0  0  0  0  0  0  0  0  0
    1.1223    1.5192    2.3648 H   0  0  0  0  0  0  0  0  0  0  0  0
   -2.1790   -2.5920    1.2203 S   0  0  0  0  0  0  0  0  0  0  0  0
   -2.8525   -0.9074    1.4299 C   0  0  2  0  0  0  0  0  0  0  0  0
   -4.3625   -0.9729    1.6900 C   0  0  0  0  0  0  0  0  0  0  0  0
   -4.9227    0.3717    1.1728 C   0  0  0  0  0  0  0  0  0  0  0  0
   -3.8127    1.0344    0.3294 C   0  0  0  0  0  0  0  0  0  0  0  0
   -2.7316   -0.0579    0.1395 C   0  0  1  0  0  0  0  0  0  0  0  0
   -2.3556   -0.4251    2.2995 H   0  0  0  0  0  0  0  0  0  0  0  0
   -4.8328   -1.8202    1.1555 H   0  0  0  0  0  0  0  0  0  0  0  0
   -4.5859   -1.1294    2.7581 H   0  0  0  0  0  0  0  0  0  0  0  0
   -5.2193    1.0238    2.0106 H   0  0  0  0  0  0  0  0  0  0  0  0
   -5.8319    0.2069    0.5712 H   0  0  0  0  0  0  0  0  0  0  0  0
   -3.3962    1.9135    0.8481 H   0  0  0  0  0  0  0  0  0  0  0  0
   -4.1940    1.3925   -0.6387 H   0  0  0  0  0  0  0  0  0  0  0  0
   -3.0422   -0.7063   -0.7316 H   0  0  0  0  0  0  0  0  0  0  0  0
    2.5065   -2.3236    1.1748 S   0  0  0  0  0  0  0  0  0  0  0  0
    2.8831   -1.4928   -0.4107 C   0  0  2  0  0  0  0  0  0  0  0  0
    4.3483   -1.7572   -0.7745 C   0  0  0  0  0  0  0  0  0  0  0  0
    4.8525   -0.4885   -1.4952 C   0  0  0  0  0  0  0  0  0  0  0  0
    3.7215    0.5559   -1.4262 C   0  0  0  0  0  0  0  0  0  0  0  0
    2.7561    0.0564   -0.3240 C   0  0  1  0  0  0  0  0  0  0  0  0
    2.2042   -1.9011   -1.1925 H   0  0  0  0  0  0  0  0  0  0  0  0
    4.9657   -1.9588    0.1221 H   0  0  0  0  0  0  0  0  0  0  0  0
    4.4454   -2.6536   -1.4105 H   0  0  0  0  0  0  0  0  0  0  0  0
    5.1228   -0.7071   -2.5413 H   0  0  0  0  0  0  0  0  0  0  0  0
    5.7687   -0.1088   -1.0119 H   0  0  0  0  0  0  0  0  0  0  0  0
    3.2075    0.6243   -2.4011 H   0  0  0  0  0  0  0  0  0  0  0  0
    4.1043    1.5619   -1.1981 H   0  0  0  0  0  0  0  0  0  0  0  0
    3.1628    0.4042    0.6640 H   0  0  0  0  0  0  0  0  0  0  0  0
  2  3  3  0  0  0  0
  1  2  1  0  0  0  0
  5  4  1  0  0  0  0
  6  5  2  0  0  0  0
  7  6  1  0  0  0  0
  8  7  1  0  0  0  0
  9  7  1  0  0  0  0
 10  7  1  0  0  0  0
 11 10  1  0  0  0  0
 12 10  1  0  0  0  0
 13 10  1  0  0  0  0
 13 16  1  0  0  0  0
 14 13  1  0  0  0  0
 15 13  1  0  0  0  0
 16  6  1  0  0  0  0
 16 17  2  0  0  0  0
 17  4  1  0  0  0  0
  1  4  1  0  0  0  0
 18 19  1  0  0  0  0
 18 20  1  0  0  0  0
 18 21  1  0  0  0  0
 18 22  1  0  0  0  0
 19 23  1  0  0  0  0
 19 24  1  0  0  0  0
  4 19  1  0  0  0  0
  1 25  1  0  0  0  0
 26 27  1  0  0  0  0
 27 28  1  0  0  0  0
 28 29  1  0  0  0  0
 29 30  1  0  0  0  0
 26 30  1  0  0  0  0
 26 31  1  0  0  0  0
 27 32  1  0  0  0  0
 27 33  1  0  0  0  0
 28 34  1  0  0  0  0
 28 35  1  0  0  0  0
 29 36  1  0  0  0  0
 29 37  1  0  0  0  0
 30 38  1  0  0  0  0
 25 26  1  0  0  0  0
  1 39  1  0  0  0  0
 40 41  1  0  0  0  0
 41 42  1  0  0  0  0
 42 43  1  0  0  0  0
 43 44  1  0  0  0  0
 40 44  1  0  0  0  0
 40 45  1  0  0  0  0
 41 46  1  0  0  0  0
 41 47  1  0  0  0  0
 42 48  1  0  0  0  0
 42 49  1  0  0  0  0
 43 50  1  0  0  0  0
 43 51  1  0  0  0  0
 44 52  1  0  0  0  0
 39 40  1  0  0  0  0
 17 30  1  0  0  0  0
  5 44  1  0  0  0  0
M  END
> <PM6_ENERGY>
-157.784

> <UID>
MYWDFSVSRMWNLO-DOPZVGNUNA-L

> <FITNESS>
1.14258

> <GCODE>
27799

> <GraphENC>
27799 182712_1_0,182713_47_1,182714_78_1,182715_78_1,182716_74_1,182717_74_1,182718_70_1,182719_70_1,182720_79_1,182721_79_1,972023_25_1, 182712_2_182713_1_SINGLE_scaff:0_MPhosphole:1,182713_3_182714_0_SINGLE_LPhospholeSubAlpha:0_ATplus:0,182713_2_182715_0_SINGLE_LPhospholeSubAlpha:0_ATplus:0,182712_0_182716_0_SINGLE_Xlig:0_Xlig:1,182712_1_182717_0_SINGLE_Xlig:0_Xlig:1,182716_1_182718_0_SINGLE_bridge:1_bridge:0,182717_1_182719_0_SINGLE_bridge:1_bridge:0,182718_1_182720_0_SINGLE_bridge:0_ATminus:0,182719_1_182721_0_SINGLE_bridge:0_ATminus:0,182713_0_972023_0_SINGLE_LPhospholeSubR:0_SubRS:1, DENOPTIMRing [vertices=[182714_78_1, 182713_47_1, 182712_1_0, 182716_74_1, 182718_70_1, 182720_79_1]] DENOPTIMRing [vertices=[182715_78_1, 182713_47_1, 182712_1_0, 182717_74_1, 182719_70_1, 182721_79_1]] SymmetricSet [symIds=[182714, 182715]] SymmetricSet [symIds=[182716, 182717]] SymmetricSet [symIds=[182718, 182719]] SymmetricSet [symIds=[182720, 182721]] 

> <GraphJson>
{
  "graphId": 27799,
  "gVertices": [
    {
      "lstAPs": [
        {
          "id": 1178491,
          "atomPositionNumber": 0,
          "atomPositionNumberInMol": 0,
          "apClass": {
            "rule": "Xlig",
            "subClass": 0,
            "bndTyp": "SINGLE"
          },
          "dirVec": {
            "x": -2.3339,
            "y": -0.0087,
            "z": 0.8172
          }
        },
        {
          "id": 1178492,
          "atomPositionNumber": 0,
          "atomPositionNumberInMol": 0,
          "apClass": {
            "rule": "Xlig",
            "subClass": 0,
            "bndTyp": "SINGLE"
          },
          "dirVec": {
            "x": 2.336,
            "y": -5.0E-4,
            "z": 0.829
          }
        },
        {
          "id": 1178493,
          "atomPositionNumber": 0,
          "atomPositionNumberInMol": 0,
          "apClass": {
            "rule": "scaff",
            "subClass": 0,
            "bndTyp": "SINGLE"
          },
          "dirVec": {
            "x": -0.0095,
            "y": 0.0046,
            "z": -1.7113
          }
        }
      ],
      "lstSymAPs": [
        {
          "symIds": [
            0,
            1
          ]
        }
      ],
      "mol": {
        "atoms": [
          {
            "elSymbol": "Pt",
            "p3d": {
              "x": -0.0098,
              "y": 0.0049,
              "z": 0.6289
            }
          },
          {
            "elSymbol": "C",
            "p3d": {
              "x": -6.0E-4,
              "y": 0.0016,
              "z": 2.5609
            }
          },
          {
            "elSymbol": "O",
            "p3d": {
              "x": 0.0025,
              "y": -0.0041,
              "z": 3.6974
            }
          },
          {
            "elSymbol": "Du",
            "p3d": {
              "x": -0.007,
              "y": 1.0013,
              "z": 0.6372
            }
          },
          {
            "elSymbol": "Du",
            "p3d": {
              "x": -0.0014,
              "y": 0.9902,
              "z": 2.5698
            }
          }
        ],
        "bonds": [
          {
            "atomIds": [
              1,
              2
            ],
            "bo": "TRIPLE"
          },
          {
            "atomIds": [
              0,
              1
            ],
            "bo": "SINGLE"
          },
          {
            "atomIds": [
              3,
              0
            ],
            "bo": "SINGLE"
          },
          {
            "atomIds": [
              4,
              1
            ],
            "bo": "SINGLE"
          }
        ]
      },
      "vertexId": 182712,
      "buildingBlockId": 0,
      "buildingBlockType": "SCAFFOLD",
      "isRCV": false,
      "properties": {
        "ATTACHMENT_POINTS": "1#Xlig:0:SINGLE:-2.3339%-0.0087%0.8172,Xlig:0:SINGLE:2.3360%-0.0005%0.8290,scaff:0:SINGLE:-0.0095%0.0046%-1.7113 "
      },
      "uniquefyingPropertyKeys": [],
      "allowedMutationTypes": [
        "DELETE",
        "EXTEND",
        "CHANGEBRANCH",
        "CHANGELINK",
        "ADDLINK",
        "DELETELINK",
        "DELETECHAIN"
      ],
      "vertexType": "MolecularFragment"
    },
    {
      "lstAPs": [
        {
          "id": 1178494,
          "atomPositionNumber": 0,
          "atomPositionNumberInMol": 5,
          "apClass": {
            "rule": "LPhospholeSubR",
            "subClass": 0,
            "bndTyp": "SINGLE"
          },
          "dirVec": {
            "x": -1.6223792475758159,
            "y": 0.14132477366600837,
            "z": -2.568290516038104
          }
        },
        {
          "id": 1178495,
          "atomPositionNumber": 0,
          "atomPositionNumberInMol": 5,
          "apClass": {
            "rule": "MPhosphole",
            "subClass": 1,
            "bndTyp": "SINGLE"
          },
          "dirVec": {
            "x": -0.009800513108591112,
            "y": 0.004900513108591157,
            "z": 0.632902589083087
          }
        },
        {
          "id": 1178496,
          "atomPositionNumber": 1,
          "atomPositionNumberInMol": 6,
          "apClass": {
            "rule": "LPhospholeSubAlpha",
            "subClass": 0,
            "bndTyp": "SINGLE"
          },
          "dirVec": {
            "x": 1.1952099210498432,
            "y": 2.669985792653061,
            "z": -2.3085490332157885
          }
        },
        {
          "id": 1178497,
          "atomPositionNumber": 13,
          "atomPositionNumberInMol": 18,
          "apClass": {
            "rule": "LPhospholeSubAlpha",
            "subClass": 0,
            "bndTyp": "SINGLE"
          },
          "dirVec": {
            "x": 0.4502422566953904,
            "y": -2.9393437322817815,
            "z": -2.274792259665105
          }
        }
      ],
      "lstSymAPs": [
        {
          "symIds": [
            2,
            3
          ]
        }
      ],
      "mol": {
        "atoms": [
          {
            "elSymbol": "P",
            "p3d": {
              "x": -0.009499486891408886,
              "y": 0.004599486891408842,
              "z": -1.7153025890830875
            }
          },
          {
            "elSymbol": "C",
            "p3d": {
              "x": 1.0783338161736449,
              "y": 1.178000381546128,
              "z": -2.5560026635246693
            }
          },
          {
            "elSymbol": "C",
            "p3d": {
              "x": 1.8458852836802766,
              "y": 0.46320912540938514,
              "z": -3.4082000202906215
            }
          },
          {
            "elSymbol": "C",
            "p3d": {
              "x": 2.954333768463528,
              "y": 0.824759678550019,
              "z": -4.369950073113815
            }
          },
          {
            "elSymbol": "H",
            "p3d": {
              "x": 3.87757216603835,
              "y": 1.0568856210794946,
              "z": -3.8389821003995683
            }
          },
          {
            "elSymbol": "H",
            "p3d": {
              "x": 2.6695959919847176,
              "y": 1.6799245447101132,
              "z": -4.984360506237548
            }
          },
          {
            "elSymbol": "C",
            "p3d": {
              "x": 3.0992181734513657,
              "y": -0.44366371249945075,
              "z": -5.216608617173867
            }
          },
          {
            "elSymbol": "H",
            "p3d": {
              "x": 4.148808172636624,
              "y": -0.5943341667214755,
              "z": -5.481575799735818
            }
          },
          {
            "elSymbol": "H",
            "p3d": {
              "x": 2.5123560986654963,
              "y": -0.3536916988386168,
              "z": -6.143449165453795
            }
          },
          {
            "elSymbol": "C",
            "p3d": {
              "x": 2.5757596245276853,
              "y": -1.6272292684271492,
              "z": -4.37343739946048
            }
          },
          {
            "elSymbol": "H",
            "p3d": {
              "x": 2.067568958121175,
              "y": -2.3526812231615017,
              "z": -4.994721076977774
            }
          },
          {
            "elSymbol": "H",
            "p3d": {
              "x": 3.4017618724916288,
              "y": -2.12648343394326,
              "z": -3.869328666573094
            }
          },
          {
            "elSymbol": "C",
            "p3d": {
              "x": 1.653574122857636,
              "y": -0.9806588575835472,
              "z": -3.401091918506773
            }
          },
          {
            "elSymbol": "C",
            "p3d": {
              "x": 0.7467262413835863,
              "y": -1.4689933619345572,
              "z": -2.5304198897116112
            }
          }
        ],
        "bonds": [
          {
            "atomIds": [
              1,
              0
            ],
            "bo": "SINGLE"
          },
          {
            "atomIds": [
              2,
              1
            ],
            "bo": "DOUBLE"
          },
          {
            "atomIds": [
              3,
              2
            ],
            "bo": "SINGLE"
          },
          {
            "atomIds": [
              4,
              3
            ],
            "bo": "SINGLE"
          },
          {
            "atomIds": [
              5,
              3
            ],
            "bo": "SINGLE"
          },
          {
            "atomIds": [
              6,
              3
            ],
            "bo": "SINGLE"
          },
          {
            "atomIds": [
              7,
              6
            ],
            "bo": "SINGLE"
          },
          {
            "atomIds": [
              8,
              6
            ],
            "bo": "SINGLE"
          },
          {
            "atomIds": [
              9,
              6
            ],
            "bo": "SINGLE"
          },
          {
            "atomIds": [
              9,
              12
            ],
            "bo": "SINGLE"
          },
          {
            "atomIds": [
              10,
              9
            ],
            "bo": "SINGLE"
          },
          {
            "atomIds": [
              11,
              9
            ],
            "bo": "SINGLE"
          },
          {
            "atomIds": [
              12,
              2
            ],
            "bo": "SINGLE"
          },
          {
            "atomIds": [
              12,
              13
            ],
            "bo": "DOUBLE"
          },
          {
            "atomIds": [
              13,
              0
            ],
            "bo": "SINGLE"
          }
        ]
      },
      "vertexId": 182713,
      "buildingBlockId": 46,
      "buildingBlockType": "FRAGMENT",
      "isRCV": false,
      "properties": {
        "ATTACHMENT_POINTS": "1#LPhospholeSubR:0:SINGLE:-1.6224%0.1413%-2.5683,MPhosphole:1:SINGLE:-0.0098%0.0049%0.6329 2#LPhospholeSubAlpha:0:SINGLE:1.1952%2.6700%-2.3085 14#LPhospholeSubAlpha:0:SINGLE:0.4502%-2.9393%-2.2748 "
      },
      "uniquefyingPropertyKeys": [],
      "allowedMutationTypes": [
        "DELETE",
        "EXTEND",
        "CHANGEBRANCH",
        "CHANGELINK",
        "ADDLINK",
        "DELETELINK",
        "DELETECHAIN"
      ],
      "vertexType": "MolecularFragment"
    },
    {
      "lstAPs": [
        {
          "id": 1178498,
          "atomPositionNumber": 0,
          "atomPositionNumberInMol": 19,
          "apClass": {
            "rule": "ATplus",
            "subClass": 0,
            "bndTyp": "ANY"
          },
          "dirVec": {
            "x": 0.4502422566953904,
            "y": -2.9393437322817815,
            "z": -2.274792259665105
          }
        }
      ],
      "lstSymAPs": [],
      "mol": {
        "atoms": [
          {
            "elSymbol": "ATP",
            "p3d": {
              "x": 0.44615185701331184,
              "y": -2.959629214796925,
              "z": -2.2712655289454933
            }
          }
        ],
        "bonds": []
      },
      "vertexId": 182714,
      "buildingBlockId": 77,
      "buildingBlockType": "FRAGMENT",
      "isRCV": true,
      "properties": {
        "ATTACHMENT_POINTS": "1#ATplus:0:ANY:0.4502%-2.9393%-2.2748 "
      },
      "uniquefyingPropertyKeys": [],
      "allowedMutationTypes": [
        "DELETE",
        "EXTEND",
        "CHANGEBRANCH",
        "CHANGELINK",
        "ADDLINK",
        "DELETELINK",
        "DELETECHAIN"
      ],
      "vertexType": "MolecularFragment"
    },
    {
      "lstAPs": [
        {
          "id": 1178499,
          "atomPositionNumber": 0,
          "atomPositionNumberInMol": 20,
          "apClass": {
            "rule": "ATplus",
            "subClass": 0,
            "bndTyp": "ANY"
          },
          "dirVec": {
            "x": 1.1952099210498432,
            "y": 2.669985792653061,
            "z": -2.3085490332157885
          }
        }
      ],
      "lstSymAPs": [],
      "mol": {
        "atoms": [
          {
            "elSymbol": "ATP",
            "p3d": {
              "x": 1.19682737639236,
              "y": 2.6906334671859207,
              "z": -2.3051245077596034
            }
          }
        ],
        "bonds": []
      },
      "vertexId": 182715,
      "buildingBlockId": 77,
      "buildingBlockType": "FRAGMENT",
      "isRCV": true,
      "properties": {
        "ATTACHMENT_POINTS": "1#ATplus:0:ANY:1.1952%2.6700%-2.3085 "
      },
      "uniquefyingPropertyKeys": [],
      "allowedMutationTypes": [
        "DELETE",
        "EXTEND",
        "CHANGEBRANCH",
        "CHANGELINK",
        "ADDLINK",
        "DELETELINK",
        "DELETECHAIN"
      ],
      "vertexType": "MolecularFragment"
    },
    {
      "lstAPs": [
        {
          "id": 1178500,
          "atomPositionNumber": 0,
          "atomPositionNumberInMol": 28,
          "apClass": {
            "rule": "Xlig",
            "subClass": 1,
            "bndTyp": "SINGLE"
          },
          "dirVec": {
            "x": -0.102,
            "y": 0.0185,
            "z": -1.0265
          }
        },
        {
          "id": 1178501,
          "atomPositionNumber": 0,
          "atomPositionNumberInMol": 28,
          "apClass": {
            "rule": "bridge",
            "subClass": 1,
            "bndTyp": "SINGLE"
          },
          "dirVec": {
            "x": -0.626,
            "y": 2.4866,
            "z": 0.7805
          }
        }
      ],
      "lstSymAPs": [],
      "mol": {
        "atoms": [
          {
            "elSymbol": "S",
            "p3d": {
              "x": -0.3267,
              "y": 2.3403,
              "z": -1.0022
            }
          }
        ],
        "bonds": []
      },
      "vertexId": 182716,
      "buildingBlockId": 73,
      "buildingBlockType": "FRAGMENT",
      "isRCV": false,
      "properties": {
        "ATTACHMENT_POINTS": "1#Xlig:1:SINGLE:-0.1020%0.0185%-1.0265,bridge:1:SINGLE:-0.6260%2.4866%0.7805 "
      },
      "uniquefyingPropertyKeys": [],
      "allowedMutationTypes": [
        "DELETE",
        "EXTEND",
        "CHANGEBRANCH",
        "CHANGELINK",
        "ADDLINK",
        "DELETELINK",
        "DELETECHAIN"
      ],
      "vertexType": "MolecularFragment"
    },
    {
      "lstAPs": [
        {
          "id": 1178502,
          "atomPositionNumber": 0,
          "atomPositionNumberInMol": 43,
          "apClass": {
            "rule": "Xlig",
            "subClass": 1,
            "bndTyp": "SINGLE"
          },
          "dirVec": {
            "x": -0.102,
            "y": 0.0185,
            "z": -1.0265
          }
        },
        {
          "id": 1178503,
          "atomPositionNumber": 0,
          "atomPositionNumberInMol": 43,
          "apClass": {
            "rule": "bridge",
            "subClass": 1,
            "bndTyp": "SINGLE"
          },
          "dirVec": {
            "x": -0.626,
            "y": 2.4866,
            "z": 0.7805
          }
        }
      ],
      "lstSymAPs": [],
      "mol": {
        "atoms": [
          {
            "elSymbol": "S",
            "p3d": {
              "x": -0.3267,
              "y": 2.3403,
              "z": -1.0022
            }
          }
        ],
        "bonds": []
      },
      "vertexId": 182717,
      "buildingBlockId": 73,
      "buildingBlockType": "FRAGMENT",
      "isRCV": false,
      "properties": {
        "ATTACHMENT_POINTS": "1#Xlig:1:SINGLE:-0.1020%0.0185%-1.0265,bridge:1:SINGLE:-0.6260%2.4866%0.7805 "
      },
      "uniquefyingPropertyKeys": [],
      "allowedMutationTypes": [
        "DELETE",
        "EXTEND",
        "CHANGEBRANCH",
        "CHANGELINK",
        "ADDLINK",
        "DELETELINK",
        "DELETECHAIN"
      ],
      "vertexType": "MolecularFragment"
    },
    {
      "lstAPs": [
        {
          "id": 1178504,
          "atomPositionNumber": 0,
          "atomPositionNumberInMol": 29,
          "apClass": {
            "rule": "bridge",
            "subClass": 0,
            "bndTyp": "SINGLE"
          },
          "dirVec": {
            "x": 2.2309,
            "y": 1.5817,
            "z": 0.6565999999999999
          }
        },
        {
          "id": 1178505,
          "atomPositionNumber": 4,
          "atomPositionNumberInMol": 33,
          "apClass": {
            "rule": "bridge",
            "subClass": 0,
            "bndTyp": "SINGLE"
          },
          "dirVec": {
            "x": 1.1795,
            "y": -0.8206,
            "z": 2.1815
          }
        }
      ],
      "lstSymAPs": [
        {
          "symIds": [
            0,
            1
          ]
        }
      ],
      "mol": {
        "atoms": [
          {
            "elSymbol": "C",
            "p3d": {
              "x": 1.4767,
              "y": 0.4111,
              "z": -0.0358
            }
          },
          {
            "elSymbol": "C",
            "p3d": {
              "x": 0.6064,
              "y": 0.7242,
              "z": -1.2721
            }
          },
          {
            "elSymbol": "C",
            "p3d": {
              "x": -0.3951,
              "y": -0.4594,
              "z": -1.3469
            }
          },
          {
            "elSymbol": "C",
            "p3d": {
              "x": -0.3076,
              "y": -1.2087,
              "z": 0.0097
            }
          },
          {
            "elSymbol": "C",
            "p3d": {
              "x": 0.4613,
              "y": -0.2385,
              "z": 0.9321
            }
          },
          {
            "elSymbol": "H",
            "p3d": {
              "x": 2.2245,
              "y": -0.3328,
              "z": -0.3416
            }
          },
          {
            "elSymbol": "H",
            "p3d": {
              "x": 0.0672,
              "y": 1.6663,
              "z": -1.1316
            }
          },
          {
            "elSymbol": "H",
            "p3d": {
              "x": 1.2126,
              "y": 0.798,
              "z": -2.1799
            }
          },
          {
            "elSymbol": "H",
            "p3d": {
              "x": -0.1332,
              "y": -1.1322,
              "z": -2.1707
            }
          },
          {
            "elSymbol": "H",
            "p3d": {
              "x": -1.4103,
              "y": -0.0853,
              "z": -1.5178
            }
          },
          {
            "elSymbol": "H",
            "p3d": {
              "x": 0.248,
              "y": -2.143,
              "z": -0.114
            }
          },
          {
            "elSymbol": "H",
            "p3d": {
              "x": -1.2998,
              "y": -1.4376,
              "z": 0.4073
            }
          },
          {
            "elSymbol": "H",
            "p3d": {
              "x": -0.2539,
              "y": 0.5182,
              "z": 1.28
            }
          }
        ],
        "bonds": [
          {
            "atomIds": [
              0,
              1
            ],
            "bo": "SINGLE"
          },
          {
            "atomIds": [
              1,
              2
            ],
            "bo": "SINGLE"
          },
          {
            "atomIds": [
              2,
              3
            ],
            "bo": "SINGLE"
          },
          {
            "atomIds": [
              3,
              4
            ],
            "bo": "SINGLE"
          },
          {
            "atomIds": [
              0,
              4
            ],
            "bo": "SINGLE"
          },
          {
            "atomIds": [
              0,
              5
            ],
            "bo": "SINGLE"
          },
          {
            "atomIds": [
              1,
              6
            ],
            "bo": "SINGLE"
          },
          {
            "atomIds": [
              1,
              7
            ],
            "bo": "SINGLE"
          },
          {
            "atomIds": [
              2,
              8
            ],
            "bo": "SINGLE"
          },
          {
            "atomIds": [
              2,
              9
            ],
            "bo": "SINGLE"
          },
          {
            "atomIds": [
              3,
              10
            ],
            "bo": "SINGLE"
          },
          {
            "atomIds": [
              3,
              11
            ],
            "bo": "SINGLE"
          },
          {
            "atomIds": [
              4,
              12
            ],
            "bo": "SINGLE"
          }
        ]
      },
      "vertexId": 182718,
      "buildingBlockId": 69,
      "buildingBlockType": "FRAGMENT",
      "isRCV": false,
      "properties": {
        "ATTACHMENT_POINTS": "1#bridge:0:SINGLE:2.2309%1.5817%0.6566 5#bridge:0:SINGLE:1.1795%-0.8206%2.1815 "
      },
      "uniquefyingPropertyKeys": [],
      "allowedMutationTypes": [
        "DELETE",
        "EXTEND",
        "CHANGEBRANCH",
        "CHANGELINK",
        "ADDLINK",
        "DELETELINK",
        "DELETECHAIN"
      ],
      "vertexType": "MolecularFragment"
    },
    {
      "lstAPs": [
        {
          "id": 1178506,
          "atomPositionNumber": 0,
          "atomPositionNumberInMol": 44,
          "apClass": {
            "rule": "bridge",
            "subClass": 0,
            "bndTyp": "SINGLE"
          },
          "dirVec": {
            "x": 2.2309,
            "y": 1.5817,
            "z": 0.6565999999999999
          }
        },
        {
          "id": 1178507,
          "atomPositionNumber": 4,
          "atomPositionNumberInMol": 48,
          "apClass": {
            "rule": "bridge",
            "subClass": 0,
            "bndTyp": "SINGLE"
          },
          "dirVec": {
            "x": 1.1795,
            "y": -0.8206,
            "z": 2.1815
          }
        }
      ],
      "lstSymAPs": [
        {
          "symIds": [
            0,
            1
          ]
        }
      ],
      "mol": {
        "atoms": [
          {
            "elSymbol": "C",
            "p3d": {
              "x": 1.4767,
              "y": 0.4111,
              "z": -0.0358
            }
          },
          {
            "elSymbol": "C",
            "p3d": {
              "x": 0.6064,
              "y": 0.7242,
              "z": -1.2721
            }
          },
          {
            "elSymbol": "C",
            "p3d": {
              "x": -0.3951,
              "y": -0.4594,
              "z": -1.3469
            }
          },
          {
            "elSymbol": "C",
            "p3d": {
              "x": -0.3076,
              "y": -1.2087,
              "z": 0.0097
            }
          },
          {
            "elSymbol": "C",
            "p3d": {
              "x": 0.4613,
              "y": -0.2385,
              "z": 0.9321
            }
          },
          {
            "elSymbol": "H",
            "p3d": {
              "x": 2.2245,
              "y": -0.3328,
              "z": -0.3416
            }
          },
          {
            "elSymbol": "H",
            "p3d": {
              "x": 0.0672,
              "y": 1.6663,
              "z": -1.1316
            }
          },
          {
            "elSymbol": "H",
            "p3d": {
              "x": 1.2126,
              "y": 0.798,
              "z": -2.1799
            }
          },
          {
            "elSymbol": "H",
            "p3d": {
              "x": -0.1332,
              "y": -1.1322,
              "z": -2.1707
            }
          },
          {
            "elSymbol": "H",
            "p3d": {
              "x": -1.4103,
              "y": -0.0853,
              "z": -1.5178
            }
          },
          {
            "elSymbol": "H",
            "p3d": {
              "x": 0.248,
              "y": -2.143,
              "z": -0.114
            }
          },
          {
            "elSymbol": "H",
            "p3d": {
              "x": -1.2998,
              "y": -1.4376,
              "z": 0.4073
            }
          },
          {
            "elSymbol": "H",
            "p3d": {
              "x": -0.2539,
              "y": 0.5182,
              "z": 1.28
            }
          }
        ],
        "bonds": [
          {
            "atomIds": [
              0,
              1
            ],
            "bo": "SINGLE"
          },
          {
            "atomIds": [
              1,
              2
            ],
            "bo": "SINGLE"
          },
          {
            "atomIds": [
              2,
              3
            ],
            "bo": "SINGLE"
          },
          {
            "atomIds": [
              3,
              4
            ],
            "bo": "SINGLE"
          },
          {
            "atomIds": [
              0,
              4
            ],
            "bo": "SINGLE"
          },
          {
            "atomIds": [
              0,
              5
            ],
            "bo": "SINGLE"
          },
          {
            "atomIds": [
              1,
              6
            ],
            "bo": "SINGLE"
          },
          {
            "atomIds": [
              1,
              7
            ],
            "bo": "SINGLE"
          },
          {
            "atomIds": [
              2,
              8
            ],
            "bo": "SINGLE"
          },
          {
            "atomIds": [
              2,
              9
            ],
            "bo": "SINGLE"
          },
          {
            "atomIds": [
              3,
              10
            ],
            "bo": "SINGLE"
          },
          {
            "atomIds": [
              3,
              11
            ],
            "bo": "SINGLE"
          },
          {
            "atomIds": [
              4,
              12
            ],
            "bo": "SINGLE"
          }
        ]
      },
      "vertexId": 182719,
      "buildingBlockId": 69,
      "buildingBlockType": "FRAGMENT",
      "isRCV": false,
      "properties": {
        "ATTACHMENT_POINTS": "1#bridge:0:SINGLE:2.2309%1.5817%0.6566 5#bridge:0:SINGLE:1.1795%-0.8206%2.1815 "
      },
      "uniquefyingPropertyKeys": [],
      "allowedMutationTypes": [
        "DELETE",
        "EXTEND",
        "CHANGEBRANCH",
        "CHANGELINK",
        "ADDLINK",
        "DELETELINK",
        "DELETECHAIN"
      ],
      "vertexType": "MolecularFragment"
    },
    {
      "lstAPs": [
        {
          "id": 1178508,
          "atomPositionNumber": 0,
          "atomPositionNumberInMol": 42,
          "apClass": {
            "rule": "ATminus",
            "subClass": 0,
            "bndTyp": "ANY"
          },
          "dirVec": {
            "x": 0.0109,
            "y": -0.0071,
            "z": 0.0026
          }
        }
      ],
      "lstSymAPs": [],
      "mol": {
        "atoms": [
          {
            "elSymbol": "ATM",
            "p3d": {
              "x": -0.0096,
              "y": 0.0045,
              "z": -0.0011
            }
          }
        ],
        "bonds": []
      },
      "vertexId": 182720,
      "buildingBlockId": 78,
      "buildingBlockType": "FRAGMENT",
      "isRCV": true,
      "properties": {
        "ATTACHMENT_POINTS": "1#ATminus:0:ANY:0.0109%-0.0071%0.0026 "
      },
      "uniquefyingPropertyKeys": [],
      "allowedMutationTypes": [
        "DELETE",
        "EXTEND",
        "CHANGEBRANCH",
        "CHANGELINK",
        "ADDLINK",
        "DELETELINK",
        "DELETECHAIN"
      ],
      "vertexType": "MolecularFragment"
    },
    {
      "lstAPs": [
        {
          "id": 1178509,
          "atomPositionNumber": 0,
          "atomPositionNumberInMol": 57,
          "apClass": {
            "rule": "ATminus",
            "subClass": 0,
            "bndTyp": "ANY"
          },
          "dirVec": {
            "x": 0.0109,
            "y": -0.0071,
            "z": 0.0026
          }
        }
      ],
      "lstSymAPs": [],
      "mol": {
        "atoms": [
          {
            "elSymbol": "ATM",
            "p3d": {
              "x": -0.0096,
              "y": 0.0045,
              "z": -0.0011
            }
          }
        ],
        "bonds": []
      },
      "vertexId": 182721,
      "buildingBlockId": 78,
      "buildingBlockType": "FRAGMENT",
      "isRCV": true,
      "properties": {
        "ATTACHMENT_POINTS": "1#ATminus:0:ANY:0.0109%-0.0071%0.0026 "
      },
      "uniquefyingPropertyKeys": [],
      "allowedMutationTypes": [
        "DELETE",
        "EXTEND",
        "CHANGEBRANCH",
        "CHANGELINK",
        "ADDLINK",
        "DELETELINK",
        "DELETECHAIN"
      ],
      "vertexType": "MolecularFragment"
    },
    {
      "lstAPs": [
        {
          "id": 1178578,
          "atomPositionNumber": 1,
          "atomPositionNumberInMol": 22,
          "apClass": {
            "rule": "SubRS",
            "subClass": 1,
            "bndTyp": "SINGLE"
          },
          "dirVec": {
            "x": 0.2985,
            "y": 0.384,
            "z": -0.6258
          }
        }
      ],
      "lstSymAPs": [],
      "mol": {
        "atoms": [
          {
            "elSymbol": "C",
            "p3d": {
              "x": -1.0244,
              "y": -0.2225,
              "z": 1.3991
            }
          },
          {
            "elSymbol": "C",
            "p3d": {
              "x": 0.3973,
              "y": -0.042,
              "z": 0.8195
            }
          },
          {
            "elSymbol": "H",
            "p3d": {
              "x": -1.5635,
              "y": -0.9908,
              "z": 0.8263
            }
          },
          {
            "elSymbol": "H",
            "p3d": {
              "x": -0.941,
              "y": -0.535,
              "z": 2.446
            }
          },
          {
            "elSymbol": "H",
            "p3d": {
              "x": -1.5586,
              "y": 0.7335,
              "z": 1.3382
            }
          },
          {
            "elSymbol": "H",
            "p3d": {
              "x": 0.9335,
              "y": 0.7221,
              "z": 1.4011
            }
          },
          {
            "elSymbol": "H",
            "p3d": {
              "x": 0.927,
              "y": -1.0102,
              "z": 0.9001
            }
          }
        ],
        "bonds": [
          {
            "atomIds": [
              0,
              1
            ],
            "bo": "SINGLE"
          },
          {
            "atomIds": [
              0,
              2
            ],
            "bo": "SINGLE"
          },
          {
            "atomIds": [
              0,
              3
            ],
            "bo": "SINGLE"
          },
          {
            "atomIds": [
              0,
              4
            ],
            "bo": "SINGLE"
          },
          {
            "atomIds": [
              1,
              5
            ],
            "bo": "SINGLE"
          },
          {
            "atomIds": [
              1,
              6
            ],
            "bo": "SINGLE"
          }
        ]
      },
      "vertexId": 972023,
      "buildingBlockId": 24,
      "buildingBlockType": "FRAGMENT",
      "isRCV": false,
      "properties": {
        "ATTACHMENT_POINTS": "2#SubRS:1:SINGLE:0.2985%0.3840%-0.6258 "
      },
      "uniquefyingPropertyKeys": [],
      "allowedMutationTypes": [
        "DELETE",
        "EXTEND",
        "CHANGEBRANCH",
        "CHANGELINK",
        "ADDLINK",
        "DELETELINK",
        "DELETECHAIN"
      ],
      "vertexType": "MolecularFragment"
    }
  ],
  "gEdges": [
    {
      "srcAPID": 1178493,
      "trgAPID": 1178495,
      "bondType": "SINGLE"
    },
    {
      "srcAPID": 1178497,
      "trgAPID": 1178498,
      "bondType": "SINGLE"
    },
    {
      "srcAPID": 1178496,
      "trgAPID": 1178499,
      "bondType": "SINGLE"
    },
    {
      "srcAPID": 1178491,
      "trgAPID": 1178500,
      "bondType": "SINGLE"
    },
    {
      "srcAPID": 1178492,
      "trgAPID": 1178502,
      "bondType": "SINGLE"
    },
    {
      "srcAPID": 1178501,
      "trgAPID": 1178504,
      "bondType": "SINGLE"
    },
    {
      "srcAPID": 1178503,
      "trgAPID": 1178506,
      "bondType": "SINGLE"
    },
    {
      "srcAPID": 1178505,
      "trgAPID": 1178508,
      "bondType": "SINGLE"
    },
    {
      "srcAPID": 1178507,
      "trgAPID": 1178509,
      "bondType": "SINGLE"
    },
    {
      "srcAPID": 1178494,
      "trgAPID": 1178578,
      "bondType": "SINGLE"
    }
  ],
  "gRings": [
    {
      "vertices": [
        182714,
        182713,
        182712,
        182716,
        182718,
        182720
      ],
      "bndTyp": "SINGLE"
    },
    {
      "vertices": [
        182715,
        182713,
        182712,
        182717,
        182719,
        182721
      ],
      "bndTyp": "SINGLE"
    }
  ],
  "symVertices": [
    {
      "symIds": [
        182714,
        182715
      ]
    },
    {
      "symIds": [
        182716,
        182717
      ]
    },
    {
      "symIds": [
        182718,
        182719
      ]
    },
    {
      "symIds": [
        182720,
        182721
      ]
    }
  ]
}

> <SMILES>
[Pt]12(C#O)[P]3(C(=C4C([H])([H])C([H])([H])C(C4=C3C5(C(C(C(C5([H])S1)([H])[H])([H])[H])([H])[H])[H])([H])[H])C6(C(C(C(C6([H])S2)([H])[H])([H])[H])([H])[H])[H])C(C([H])([H])[H])([H])[H]

$$$$
