M00003177
  CDK     05032208043D

 39 42  0  0  0  0  0  0  0  0999 V2000
   -2.5221    0.1091   -1.1396 Pt  0  0  0  0  0  0  0  0  0  0  0  0
   -4.4674    0.1208   -1.1472 C   0  0  0  0  0  0  0  0  0  0  0  0
   -5.6098    0.1304   -1.1177 O   0  0  0  0  0  0  0  0  0  0  0  0
   -0.2588    0.1071   -0.9725 P   0  0  0  0  0  0  0  0  0  0  0  0
    0.3103   -0.9969   -3.4627 C   0  0  0  0  0  0  0  0  0  0  0  0
    0.7485    0.1412   -2.5601 C   0  0  0  0  0  0  0  0  0  0  0  0
   -0.7552   -0.9449   -3.7403 H   0  0  0  0  0  0  0  0  0  0  0  0
    0.8732   -0.9762   -4.4078 H   0  0  0  0  0  0  0  0  0  0  0  0
    0.4818   -1.9920   -3.0241 H   0  0  0  0  0  0  0  0  0  0  0  0
    1.8304    0.0738   -2.3271 H   0  0  0  0  0  0  0  0  0  0  0  0
    0.6003    1.1237   -3.0623 H   0  0  0  0  0  0  0  0  0  0  0  0
   -2.4586   -2.2297   -1.0057 S   0  0  0  0  0  0  0  0  0  0  0  0
   -0.9328   -2.4241   -0.1276 C   0  0  0  0  0  0  0  0  0  0  0  0
   -0.7437   -3.6581    0.5037 C   0  0  0  0  0  0  0  0  0  0  0  0
    0.4459   -3.9103    1.2012 C   0  0  0  0  0  0  0  0  0  0  0  0
    1.4467   -2.9199    1.2643 C   0  0  0  0  0  0  0  0  0  0  0  0
    1.2588   -1.6930    0.6299 C   0  0  0  0  0  0  0  0  0  0  0  0
    0.0733   -1.4488   -0.0662 C   0  0  0  0  0  0  0  0  0  0  0  0
   -1.5227   -4.4211    0.4621 H   0  0  0  0  0  0  0  0  0  0  0  0
    2.0479   -0.9408    0.6941 H   0  0  0  0  0  0  0  0  0  0  0  0
    2.3656   -3.1137    1.8123 H   0  0  0  0  0  0  0  0  0  0  0  0
    0.6411   -5.2205    1.8884 C   0  0  0  0  0  0  0  0  0  0  0  0
    0.0814   -5.2488    2.8369 H   0  0  0  0  0  0  0  0  0  0  0  0
    0.2801   -6.0630    1.2805 H   0  0  0  0  0  0  0  0  0  0  0  0
    1.6926   -5.4256    2.1288 H   0  0  0  0  0  0  0  0  0  0  0  0
   -2.4206    2.4510   -1.1175 S   0  0  0  0  0  0  0  0  0  0  0  0
   -0.9356    2.6475   -0.1716 C   0  0  0  0  0  0  0  0  0  0  0  0
   -0.7625    3.8845    0.4563 C   0  0  0  0  0  0  0  0  0  0  0  0
    0.3981    4.1308    1.2047 C   0  0  0  0  0  0  0  0  0  0  0  0
    1.3844    3.1315    1.3204 C   0  0  0  0  0  0  0  0  0  0  0  0
    1.2125    1.9006    0.6882 C   0  0  0  0  0  0  0  0  0  0  0  0
    0.0583    1.6633   -0.0597 C   0  0  0  0  0  0  0  0  0  0  0  0
   -1.5305    4.6554    0.3736 H   0  0  0  0  0  0  0  0  0  0  0  0
    1.9889    1.1402    0.7957 H   0  0  0  0  0  0  0  0  0  0  0  0
    0.5763    5.4504    1.8783 C   0  0  0  0  0  0  0  0  0  0  0  0
    0.5245    6.2795    1.1562 H   0  0  0  0  0  0  0  0  0  0  0  0
   -0.2163    5.6259    2.6225 H   0  0  0  0  0  0  0  0  0  0  0  0
    1.5358    5.5406    2.4040 H   0  0  0  0  0  0  0  0  0  0  0  0
    2.2800    3.3202    1.9074 H   0  0  0  0  0  0  0  0  0  0  0  0
  2  3  3  0  0  0  0
  1  2  1  0  0  0  0
  1  4  1  0  0  0  0
  5  6  1  0  0  0  0
  5  7  1  0  0  0  0
  5  8  1  0  0  0  0
  5  9  1  0  0  0  0
  6 10  1  0  0  0  0
  6 11  1  0  0  0  0
  4  6  1  0  0  0  0
  1 12  1  0  0  0  0
 13 14  1  0  0  0  0
 14 15  2  0  0  0  0
 15 16  1  0  0  0  0
 16 17  2  0  0  0  0
 17 18  1  0  0  0  0
 13 18  2  0  0  0  0
 14 19  1  0  0  0  0
 17 20  1  0  0  0  0
 12 13  1  0  0  0  0
 16 21  1  0  0  0  0
 22 23  1  0  0  0  0
 22 24  1  0  0  0  0
 22 25  1  0  0  0  0
 15 22  1  0  0  0  0
  1 26  1  0  0  0  0
 27 28  1  0  0  0  0
 28 29  2  0  0  0  0
 29 30  1  0  0  0  0
 30 31  2  0  0  0  0
 31 32  1  0  0  0  0
 27 32  2  0  0  0  0
 28 33  1  0  0  0  0
 31 34  1  0  0  0  0
 26 27  1  0  0  0  0
 35 36  1  0  0  0  0
 35 37  1  0  0  0  0
 35 38  1  0  0  0  0
 29 35  1  0  0  0  0
 30 39  1  0  0  0  0
  4 18  1  0  0  0  0
  4 32  1  0  0  0  0
M  END
> <PM6_ENERGY>
1.566

> <UID>
IZQCYBXQHJNBQP-FLVUIRQENA-L

> <FITNESS>
1.14282

> <GCODE>
13625

> <GraphENC>
13625 144226_1_0,144227_39_1,144228_78_1,144229_78_1,144230_74_1,144231_74_1,144232_69_1,144233_69_1,144234_79_1,144235_1_2,144236_24_1,144237_1_2,144238_79_1,144239_24_1,492831_25_1, 144226_2_144227_3_SINGLE_scaff:0_MPhosphine:1,144227_0_144228_0_SINGLE_LPhosphineSubMSym:0_ATplus:0,144227_1_144229_0_SINGLE_LPhosphineSubMSym:0_ATplus:0,144226_1_144230_0_SINGLE_Xlig:0_Xlig:1,144226_0_144231_0_SINGLE_Xlig:0_Xlig:1,144231_1_144232_0_SINGLE_bridge:1_bridge:0,144230_1_144233_0_SINGLE_bridge:1_bridge:0,144232_1_144234_0_SINGLE_bridge:0_ATminus:0,144233_3_144235_0_SINGLE_SubBridgeArS:0_hyd:1,144232_2_144236_0_SINGLE_SubBridgeArS:0_SubRS:1,144232_3_144237_0_SINGLE_SubBridgeArS:0_hyd:1,144233_1_144238_0_SINGLE_bridge:0_ATminus:0,144233_2_144239_0_SINGLE_SubBridgeArS:0_SubRS:1,144227_2_492831_0_SINGLE_LPhosphineSubM:0_SubRS:1, DENOPTIMRing [vertices=[144228_78_1, 144227_39_1, 144226_1_0, 144231_74_1, 144232_69_1, 144234_79_1]] DENOPTIMRing [vertices=[144229_78_1, 144227_39_1, 144226_1_0, 144230_74_1, 144233_69_1, 144238_79_1]] SymmetricSet [symIds=[144228, 144229]] SymmetricSet [symIds=[144230, 144231]] SymmetricSet [symIds=[144232, 144233]] SymmetricSet [symIds=[144234, 144238]] SymmetricSet [symIds=[144236, 144239]] SymmetricSet [symIds=[144235, 144237]] 

> <GraphJson>
{
  "graphId": 13625,
  "gVertices": [
    {
      "lstAPs": [
        {
          "id": 434255,
          "atomPositionNumber": 0,
          "atomPositionNumberInMol": 0,
          "apClass": {
            "rule": "Xlig",
            "subClass": 0,
            "bndTyp": "SINGLE"
          },
          "dirVec": {
            "x": -2.3339,
            "y": -0.0087,
            "z": 0.8172
          }
        },
        {
          "id": 434256,
          "atomPositionNumber": 0,
          "atomPositionNumberInMol": 0,
          "apClass": {
            "rule": "Xlig",
            "subClass": 0,
            "bndTyp": "SINGLE"
          },
          "dirVec": {
            "x": 2.336,
            "y": -5.0E-4,
            "z": 0.829
          }
        },
        {
          "id": 434257,
          "atomPositionNumber": 0,
          "atomPositionNumberInMol": 0,
          "apClass": {
            "rule": "scaff",
            "subClass": 0,
            "bndTyp": "SINGLE"
          },
          "dirVec": {
            "x": -0.0095,
            "y": 0.0046,
            "z": -1.7113
          }
        }
      ],
      "lstSymAPs": [
        {
          "symIds": [
            0,
            1
          ]
        }
      ],
      "mol": {
        "atoms": [
          {
            "elSymbol": "Pt",
            "p3d": {
              "x": -0.0098,
              "y": 0.0049,
              "z": 0.6289
            }
          },
          {
            "elSymbol": "C",
            "p3d": {
              "x": -6.0E-4,
              "y": 0.0016,
              "z": 2.5609
            }
          },
          {
            "elSymbol": "O",
            "p3d": {
              "x": 0.0025,
              "y": -0.0041,
              "z": 3.6974
            }
          },
          {
            "elSymbol": "Du",
            "p3d": {
              "x": -0.007,
              "y": 1.0013,
              "z": 0.6372
            }
          },
          {
            "elSymbol": "Du",
            "p3d": {
              "x": -0.0014,
              "y": 0.9902,
              "z": 2.5698
            }
          }
        ],
        "bonds": [
          {
            "atomIds": [
              1,
              2
            ],
            "bo": "TRIPLE"
          },
          {
            "atomIds": [
              0,
              1
            ],
            "bo": "SINGLE"
          },
          {
            "atomIds": [
              3,
              0
            ],
            "bo": "SINGLE"
          },
          {
            "atomIds": [
              4,
              1
            ],
            "bo": "SINGLE"
          }
        ]
      },
      "vertexId": 144226,
      "buildingBlockId": 0,
      "buildingBlockType": "SCAFFOLD",
      "isRCV": false,
      "properties": {
        "ATTACHMENT_POINTS": "1#Xlig:0:SINGLE:-2.3339%-0.0087%0.8172,Xlig:0:SINGLE:2.3360%-0.0005%0.8290,scaff:0:SINGLE:-0.0095%0.0046%-1.7113 "
      },
      "uniquefyingPropertyKeys": [],
      "allowedMutationTypes": [
        "DELETE",
        "EXTEND",
        "CHANGEBRANCH",
        "CHANGELINK",
        "ADDLINK",
        "DELETELINK",
        "DELETECHAIN"
      ],
      "vertexType": "MolecularFragment"
    },
    {
      "lstAPs": [
        {
          "id": 434258,
          "atomPositionNumber": 0,
          "atomPositionNumberInMol": 5,
          "apClass": {
            "rule": "LPhosphineSubMSym",
            "subClass": 0,
            "bndTyp": "SINGLE"
          },
          "dirVec": {
            "x": 1.6990896281071761,
            "y": -0.022388909837196012,
            "z": -2.396120418214485
          }
        },
        {
          "id": 434259,
          "atomPositionNumber": 0,
          "atomPositionNumberInMol": 5,
          "apClass": {
            "rule": "LPhosphineSubMSym",
            "subClass": 0,
            "bndTyp": "SINGLE"
          },
          "dirVec": {
            "x": -0.7974463454160869,
            "y": -1.5166607579844005,
            "z": -2.4042461021237207
          }
        },
        {
          "id": 434260,
          "atomPositionNumber": 0,
          "atomPositionNumberInMol": 5,
          "apClass": {
            "rule": "LPhosphineSubM",
            "subClass": 0,
            "bndTyp": "SINGLE"
          },
          "dirVec": {
            "x": -0.7742387081003741,
            "y": 1.5297606753905255,
            "z": -2.410065538873874
          }
        },
        {
          "id": 434261,
          "atomPositionNumber": 0,
          "atomPositionNumberInMol": 5,
          "apClass": {
            "rule": "MPhosphine",
            "subClass": 1,
            "bndTyp": "SINGLE"
          },
          "dirVec": {
            "x": -0.009797986516488381,
            "y": 0.004897986516489378,
            "z": 0.6131934862948514
          }
        }
      ],
      "lstSymAPs": [
        {
          "symIds": [
            0,
            1
          ]
        }
      ],
      "mol": {
        "atoms": [
          {
            "elSymbol": "P",
            "p3d": {
              "x": -0.009502013483511618,
              "y": 0.004602013483510622,
              "z": -1.6955934862948516
            }
          }
        ],
        "bonds": []
      },
      "vertexId": 144227,
      "buildingBlockId": 38,
      "buildingBlockType": "FRAGMENT",
      "isRCV": false,
      "properties": {
        "ATTACHMENT_POINTS": "1#LPhosphineSubMSym:0:SINGLE:1.6991%-0.0224%-2.3961,LPhosphineSubMSym:0:SINGLE:-0.7974%-1.5167%-2.4042,LPhosphineSubM:0:SINGLE:-0.7742%1.5298%-2.4101,MPhosphine:1:SINGLE:-0.0098%0.0049%0.6132 "
      },
      "uniquefyingPropertyKeys": [],
      "allowedMutationTypes": [
        "DELETE",
        "EXTEND",
        "CHANGEBRANCH",
        "CHANGELINK",
        "ADDLINK",
        "DELETELINK",
        "DELETECHAIN"
      ],
      "vertexType": "MolecularFragment"
    },
    {
      "lstAPs": [
        {
          "id": 434262,
          "atomPositionNumber": 0,
          "atomPositionNumberInMol": 6,
          "apClass": {
            "rule": "ATplus",
            "subClass": 0,
            "bndTyp": "ANY"
          },
          "dirVec": {
            "x": 1.6990896281071761,
            "y": -0.022388909837196012,
            "z": -2.396120418214485
          }
        }
      ],
      "lstSymAPs": [],
      "mol": {
        "atoms": [
          {
            "elSymbol": "ATP",
            "p3d": {
              "x": 1.718510555115942,
              "y": -0.02269570564431036,
              "z": -2.4040830478337076
            }
          }
        ],
        "bonds": []
      },
      "vertexId": 144228,
      "buildingBlockId": 77,
      "buildingBlockType": "FRAGMENT",
      "isRCV": true,
      "properties": {
        "ATTACHMENT_POINTS": "1#ATplus:0:ANY:1.6991%-0.0224%-2.3961 "
      },
      "uniquefyingPropertyKeys": [],
      "allowedMutationTypes": [
        "DELETE",
        "EXTEND",
        "CHANGEBRANCH",
        "CHANGELINK",
        "ADDLINK",
        "DELETELINK",
        "DELETECHAIN"
      ],
      "vertexType": "MolecularFragment"
    },
    {
      "lstAPs": [
        {
          "id": 434263,
          "atomPositionNumber": 0,
          "atomPositionNumberInMol": 7,
          "apClass": {
            "rule": "ATplus",
            "subClass": 0,
            "bndTyp": "ANY"
          },
          "dirVec": {
            "x": -0.7974463454160869,
            "y": -1.5166607579844005,
            "z": -2.4042461021237207
          }
        }
      ],
      "lstSymAPs": [],
      "mol": {
        "atoms": [
          {
            "elSymbol": "ATP",
            "p3d": {
              "x": -0.8063679812732594,
              "y": -1.5338855185925786,
              "z": -2.4122699438234907
            }
          }
        ],
        "bonds": []
      },
      "vertexId": 144229,
      "buildingBlockId": 77,
      "buildingBlockType": "FRAGMENT",
      "isRCV": true,
      "properties": {
        "ATTACHMENT_POINTS": "1#ATplus:0:ANY:-0.7974%-1.5167%-2.4042 "
      },
      "uniquefyingPropertyKeys": [],
      "allowedMutationTypes": [
        "DELETE",
        "EXTEND",
        "CHANGEBRANCH",
        "CHANGELINK",
        "ADDLINK",
        "DELETELINK",
        "DELETECHAIN"
      ],
      "vertexType": "MolecularFragment"
    },
    {
      "lstAPs": [
        {
          "id": 434264,
          "atomPositionNumber": 0,
          "atomPositionNumberInMol": 15,
          "apClass": {
            "rule": "Xlig",
            "subClass": 1,
            "bndTyp": "SINGLE"
          },
          "dirVec": {
            "x": -0.102,
            "y": 0.0185,
            "z": -1.0265
          }
        },
        {
          "id": 434265,
          "atomPositionNumber": 0,
          "atomPositionNumberInMol": 15,
          "apClass": {
            "rule": "bridge",
            "subClass": 1,
            "bndTyp": "SINGLE"
          },
          "dirVec": {
            "x": -0.626,
            "y": 2.4866,
            "z": 0.7805
          }
        }
      ],
      "lstSymAPs": [],
      "mol": {
        "atoms": [
          {
            "elSymbol": "S",
            "p3d": {
              "x": -0.3267,
              "y": 2.3403,
              "z": -1.0022
            }
          }
        ],
        "bonds": []
      },
      "vertexId": 144230,
      "buildingBlockId": 73,
      "buildingBlockType": "FRAGMENT",
      "isRCV": false,
      "properties": {
        "ATTACHMENT_POINTS": "1#Xlig:1:SINGLE:-0.1020%0.0185%-1.0265,bridge:1:SINGLE:-0.6260%2.4866%0.7805 "
      },
      "uniquefyingPropertyKeys": [],
      "allowedMutationTypes": [
        "DELETE",
        "EXTEND",
        "CHANGEBRANCH",
        "CHANGELINK",
        "ADDLINK",
        "DELETELINK",
        "DELETECHAIN"
      ],
      "vertexType": "MolecularFragment"
    },
    {
      "lstAPs": [
        {
          "id": 434266,
          "atomPositionNumber": 0,
          "atomPositionNumberInMol": 30,
          "apClass": {
            "rule": "Xlig",
            "subClass": 1,
            "bndTyp": "SINGLE"
          },
          "dirVec": {
            "x": -0.102,
            "y": 0.0185,
            "z": -1.0265
          }
        },
        {
          "id": 434267,
          "atomPositionNumber": 0,
          "atomPositionNumberInMol": 30,
          "apClass": {
            "rule": "bridge",
            "subClass": 1,
            "bndTyp": "SINGLE"
          },
          "dirVec": {
            "x": -0.626,
            "y": 2.4866,
            "z": 0.7805
          }
        }
      ],
      "lstSymAPs": [],
      "mol": {
        "atoms": [
          {
            "elSymbol": "S",
            "p3d": {
              "x": -0.3267,
              "y": 2.3403,
              "z": -1.0022
            }
          }
        ],
        "bonds": []
      },
      "vertexId": 144231,
      "buildingBlockId": 73,
      "buildingBlockType": "FRAGMENT",
      "isRCV": false,
      "properties": {
        "ATTACHMENT_POINTS": "1#Xlig:1:SINGLE:-0.1020%0.0185%-1.0265,bridge:1:SINGLE:-0.6260%2.4866%0.7805 "
      },
      "uniquefyingPropertyKeys": [],
      "allowedMutationTypes": [
        "DELETE",
        "EXTEND",
        "CHANGEBRANCH",
        "CHANGELINK",
        "ADDLINK",
        "DELETELINK",
        "DELETECHAIN"
      ],
      "vertexType": "MolecularFragment"
    },
    {
      "lstAPs": [
        {
          "id": 434268,
          "atomPositionNumber": 0,
          "atomPositionNumberInMol": 31,
          "apClass": {
            "rule": "bridge",
            "subClass": 0,
            "bndTyp": "SINGLE"
          },
          "dirVec": {
            "x": 2.5022,
            "y": 1.4447,
            "z": 0.0013
          }
        },
        {
          "id": 434269,
          "atomPositionNumber": 5,
          "atomPositionNumberInMol": 36,
          "apClass": {
            "rule": "bridge",
            "subClass": 0,
            "bndTyp": "SINGLE"
          },
          "dirVec": {
            "x": 2.5022,
            "y": -1.4447,
            "z": -0.0015
          }
        },
        {
          "id": 434270,
          "atomPositionNumber": 2,
          "atomPositionNumberInMol": 33,
          "apClass": {
            "rule": "SubBridgeArS",
            "subClass": 0,
            "bndTyp": "SINGLE"
          },
          "dirVec": {
            "x": -2.5022,
            "y": 1.4447,
            "z": -0.0014
          }
        },
        {
          "id": 434271,
          "atomPositionNumber": 3,
          "atomPositionNumberInMol": 34,
          "apClass": {
            "rule": "SubBridgeArS",
            "subClass": 0,
            "bndTyp": "SINGLE"
          },
          "dirVec": {
            "x": -2.5022,
            "y": -1.4447,
            "z": 6.0E-4
          }
        }
      ],
      "lstSymAPs": [
        {
          "symIds": [
            0,
            1
          ]
        },
        {
          "symIds": [
            2,
            3
          ]
        }
      ],
      "mol": {
        "atoms": [
          {
            "elSymbol": "C",
            "p3d": {
              "x": 1.1971,
              "y": 0.6912,
              "z": 0.0015
            }
          },
          {
            "elSymbol": "C",
            "p3d": {
              "x": 0.0,
              "y": 1.3824,
              "z": -3.0E-4
            }
          },
          {
            "elSymbol": "C",
            "p3d": {
              "x": -1.1971,
              "y": 0.6912,
              "z": -1.0E-4
            }
          },
          {
            "elSymbol": "C",
            "p3d": {
              "x": -1.1971,
              "y": -0.6912,
              "z": 9.0E-4
            }
          },
          {
            "elSymbol": "C",
            "p3d": {
              "x": 0.0,
              "y": -1.3824,
              "z": 0.0017
            }
          },
          {
            "elSymbol": "C",
            "p3d": {
              "x": 1.1971,
              "y": -0.6912,
              "z": -0.0024
            }
          },
          {
            "elSymbol": "H",
            "p3d": {
              "x": 0.0,
              "y": 2.4624,
              "z": -0.0014
            }
          },
          {
            "elSymbol": "H",
            "p3d": {
              "x": 0.0,
              "y": -2.4624,
              "z": 0.0021
            }
          }
        ],
        "bonds": [
          {
            "atomIds": [
              0,
              1
            ],
            "bo": "SINGLE"
          },
          {
            "atomIds": [
              1,
              2
            ],
            "bo": "DOUBLE"
          },
          {
            "atomIds": [
              2,
              3
            ],
            "bo": "SINGLE"
          },
          {
            "atomIds": [
              3,
              4
            ],
            "bo": "DOUBLE"
          },
          {
            "atomIds": [
              4,
              5
            ],
            "bo": "SINGLE"
          },
          {
            "atomIds": [
              0,
              5
            ],
            "bo": "DOUBLE"
          },
          {
            "atomIds": [
              1,
              6
            ],
            "bo": "SINGLE"
          },
          {
            "atomIds": [
              4,
              7
            ],
            "bo": "SINGLE"
          }
        ]
      },
      "vertexId": 144232,
      "buildingBlockId": 68,
      "buildingBlockType": "FRAGMENT",
      "isRCV": false,
      "properties": {
        "ATTACHMENT_POINTS": "1#bridge:0:SINGLE:2.5022%1.4447%0.0013 3#SubBridgeArS:0:SINGLE:-2.5022%1.4447%-0.0014 4#SubBridgeArS:0:SINGLE:-2.5022%-1.4447%0.0006 6#bridge:0:SINGLE:2.5022%-1.4447%-0.0015 "
      },
      "uniquefyingPropertyKeys": [],
      "allowedMutationTypes": [
        "DELETE",
        "EXTEND",
        "CHANGEBRANCH",
        "CHANGELINK",
        "ADDLINK",
        "DELETELINK",
        "DELETECHAIN"
      ],
      "vertexType": "MolecularFragment"
    },
    {
      "lstAPs": [
        {
          "id": 434272,
          "atomPositionNumber": 0,
          "atomPositionNumberInMol": 16,
          "apClass": {
            "rule": "bridge",
            "subClass": 0,
            "bndTyp": "SINGLE"
          },
          "dirVec": {
            "x": 2.5022,
            "y": 1.4447,
            "z": 0.0013
          }
        },
        {
          "id": 434273,
          "atomPositionNumber": 5,
          "atomPositionNumberInMol": 21,
          "apClass": {
            "rule": "bridge",
            "subClass": 0,
            "bndTyp": "SINGLE"
          },
          "dirVec": {
            "x": 2.5022,
            "y": -1.4447,
            "z": -0.0015
          }
        },
        {
          "id": 434274,
          "atomPositionNumber": 2,
          "atomPositionNumberInMol": 18,
          "apClass": {
            "rule": "SubBridgeArS",
            "subClass": 0,
            "bndTyp": "SINGLE"
          },
          "dirVec": {
            "x": -2.5022,
            "y": 1.4447,
            "z": -0.0014
          }
        },
        {
          "id": 434275,
          "atomPositionNumber": 3,
          "atomPositionNumberInMol": 19,
          "apClass": {
            "rule": "SubBridgeArS",
            "subClass": 0,
            "bndTyp": "SINGLE"
          },
          "dirVec": {
            "x": -2.5022,
            "y": -1.4447,
            "z": 6.0E-4
          }
        }
      ],
      "lstSymAPs": [
        {
          "symIds": [
            0,
            1
          ]
        },
        {
          "symIds": [
            2,
            3
          ]
        }
      ],
      "mol": {
        "atoms": [
          {
            "elSymbol": "C",
            "p3d": {
              "x": 1.1971,
              "y": 0.6912,
              "z": 0.0015
            }
          },
          {
            "elSymbol": "C",
            "p3d": {
              "x": 0.0,
              "y": 1.3824,
              "z": -3.0E-4
            }
          },
          {
            "elSymbol": "C",
            "p3d": {
              "x": -1.1971,
              "y": 0.6912,
              "z": -1.0E-4
            }
          },
          {
            "elSymbol": "C",
            "p3d": {
              "x": -1.1971,
              "y": -0.6912,
              "z": 9.0E-4
            }
          },
          {
            "elSymbol": "C",
            "p3d": {
              "x": 0.0,
              "y": -1.3824,
              "z": 0.0017
            }
          },
          {
            "elSymbol": "C",
            "p3d": {
              "x": 1.1971,
              "y": -0.6912,
              "z": -0.0024
            }
          },
          {
            "elSymbol": "H",
            "p3d": {
              "x": 0.0,
              "y": 2.4624,
              "z": -0.0014
            }
          },
          {
            "elSymbol": "H",
            "p3d": {
              "x": 0.0,
              "y": -2.4624,
              "z": 0.0021
            }
          }
        ],
        "bonds": [
          {
            "atomIds": [
              0,
              1
            ],
            "bo": "SINGLE"
          },
          {
            "atomIds": [
              1,
              2
            ],
            "bo": "DOUBLE"
          },
          {
            "atomIds": [
              2,
              3
            ],
            "bo": "SINGLE"
          },
          {
            "atomIds": [
              3,
              4
            ],
            "bo": "DOUBLE"
          },
          {
            "atomIds": [
              4,
              5
            ],
            "bo": "SINGLE"
          },
          {
            "atomIds": [
              0,
              5
            ],
            "bo": "DOUBLE"
          },
          {
            "atomIds": [
              1,
              6
            ],
            "bo": "SINGLE"
          },
          {
            "atomIds": [
              4,
              7
            ],
            "bo": "SINGLE"
          }
        ]
      },
      "vertexId": 144233,
      "buildingBlockId": 68,
      "buildingBlockType": "FRAGMENT",
      "isRCV": false,
      "properties": {
        "ATTACHMENT_POINTS": "1#bridge:0:SINGLE:2.5022%1.4447%0.0013 3#SubBridgeArS:0:SINGLE:-2.5022%1.4447%-0.0014 4#SubBridgeArS:0:SINGLE:-2.5022%-1.4447%0.0006 6#bridge:0:SINGLE:2.5022%-1.4447%-0.0015 "
      },
      "uniquefyingPropertyKeys": [],
      "allowedMutationTypes": [
        "DELETE",
        "EXTEND",
        "CHANGEBRANCH",
        "CHANGELINK",
        "ADDLINK",
        "DELETELINK",
        "DELETECHAIN"
      ],
      "vertexType": "MolecularFragment"
    },
    {
      "lstAPs": [
        {
          "id": 434276,
          "atomPositionNumber": 0,
          "atomPositionNumberInMol": 39,
          "apClass": {
            "rule": "ATminus",
            "subClass": 0,
            "bndTyp": "ANY"
          },
          "dirVec": {
            "x": 0.0109,
            "y": -0.0071,
            "z": 0.0026
          }
        }
      ],
      "lstSymAPs": [],
      "mol": {
        "atoms": [
          {
            "elSymbol": "ATM",
            "p3d": {
              "x": -0.0096,
              "y": 0.0045,
              "z": -0.0011
            }
          }
        ],
        "bonds": []
      },
      "vertexId": 144234,
      "buildingBlockId": 78,
      "buildingBlockType": "FRAGMENT",
      "isRCV": true,
      "properties": {
        "ATTACHMENT_POINTS": "1#ATminus:0:ANY:0.0109%-0.0071%0.0026 "
      },
      "uniquefyingPropertyKeys": [],
      "allowedMutationTypes": [
        "DELETE",
        "EXTEND",
        "CHANGEBRANCH",
        "CHANGELINK",
        "ADDLINK",
        "DELETELINK",
        "DELETECHAIN"
      ],
      "vertexType": "MolecularFragment"
    },
    {
      "lstAPs": [
        {
          "id": 434277,
          "atomPositionNumber": 0,
          "atomPositionNumberInMol": 24,
          "apClass": {
            "rule": "hyd",
            "subClass": 1,
            "bndTyp": "SINGLE"
          },
          "dirVec": {
            "x": 0.4589,
            "y": -1.751,
            "z": 0.3869
          }
        }
      ],
      "lstSymAPs": [],
      "mol": {
        "atoms": [
          {
            "elSymbol": "H",
            "p3d": {
              "x": 0.1925,
              "y": -2.5024,
              "z": 1.1483
            }
          }
        ],
        "bonds": []
      },
      "vertexId": 144235,
      "buildingBlockId": 0,
      "buildingBlockType": "CAP",
      "isRCV": false,
      "properties": {
        "ATTACHMENT_POINTS": "1#hyd:1:SINGLE:0.4589%-1.7510%0.3869 "
      },
      "uniquefyingPropertyKeys": [],
      "allowedMutationTypes": [
        "DELETE",
        "EXTEND",
        "CHANGEBRANCH",
        "CHANGELINK",
        "ADDLINK",
        "DELETELINK",
        "DELETECHAIN"
      ],
      "vertexType": "MolecularFragment"
    },
    {
      "lstAPs": [
        {
          "id": 434278,
          "atomPositionNumber": 0,
          "atomPositionNumberInMol": 40,
          "apClass": {
            "rule": "SubRS",
            "subClass": 1,
            "bndTyp": "SINGLE"
          },
          "dirVec": {
            "x": 0.2865,
            "y": 0.3959,
            "z": -0.6387
          }
        }
      ],
      "lstSymAPs": [],
      "mol": {
        "atoms": [
          {
            "elSymbol": "C",
            "p3d": {
              "x": 0.3969,
              "y": -0.0496,
              "z": 0.8235
            }
          },
          {
            "elSymbol": "H",
            "p3d": {
              "x": -0.6146,
              "y": -0.163,
              "z": 1.2402
            }
          },
          {
            "elSymbol": "H",
            "p3d": {
              "x": 0.9335,
              "y": -0.9979,
              "z": 0.8998
            }
          },
          {
            "elSymbol": "H",
            "p3d": {
              "x": 0.9252,
              "y": 0.7237,
              "z": 1.3995
            }
          }
        ],
        "bonds": [
          {
            "atomIds": [
              0,
              1
            ],
            "bo": "SINGLE"
          },
          {
            "atomIds": [
              0,
              2
            ],
            "bo": "SINGLE"
          },
          {
            "atomIds": [
              0,
              3
            ],
            "bo": "SINGLE"
          }
        ]
      },
      "vertexId": 144236,
      "buildingBlockId": 23,
      "buildingBlockType": "FRAGMENT",
      "isRCV": false,
      "properties": {
        "ATTACHMENT_POINTS": "1#SubRS:1:SINGLE:0.2865%0.3959%-0.6387 "
      },
      "uniquefyingPropertyKeys": [],
      "allowedMutationTypes": [
        "DELETE",
        "EXTEND",
        "CHANGEBRANCH",
        "CHANGELINK",
        "ADDLINK",
        "DELETELINK",
        "DELETECHAIN"
      ],
      "vertexType": "MolecularFragment"
    },
    {
      "lstAPs": [
        {
          "id": 434279,
          "atomPositionNumber": 0,
          "atomPositionNumberInMol": 44,
          "apClass": {
            "rule": "hyd",
            "subClass": 1,
            "bndTyp": "SINGLE"
          },
          "dirVec": {
            "x": 0.4589,
            "y": -1.751,
            "z": 0.3869
          }
        }
      ],
      "lstSymAPs": [],
      "mol": {
        "atoms": [
          {
            "elSymbol": "H",
            "p3d": {
              "x": 0.1925,
              "y": -2.5024,
              "z": 1.1483
            }
          }
        ],
        "bonds": []
      },
      "vertexId": 144237,
      "buildingBlockId": 0,
      "buildingBlockType": "CAP",
      "isRCV": false,
      "properties": {
        "ATTACHMENT_POINTS": "1#hyd:1:SINGLE:0.4589%-1.7510%0.3869 "
      },
      "uniquefyingPropertyKeys": [],
      "allowedMutationTypes": [
        "DELETE",
        "EXTEND",
        "CHANGEBRANCH",
        "CHANGELINK",
        "ADDLINK",
        "DELETELINK",
        "DELETECHAIN"
      ],
      "vertexType": "MolecularFragment"
    },
    {
      "lstAPs": [
        {
          "id": 434280,
          "atomPositionNumber": 0,
          "atomPositionNumberInMol": 25,
          "apClass": {
            "rule": "ATminus",
            "subClass": 0,
            "bndTyp": "ANY"
          },
          "dirVec": {
            "x": 0.0109,
            "y": -0.0071,
            "z": 0.0026
          }
        }
      ],
      "lstSymAPs": [],
      "mol": {
        "atoms": [
          {
            "elSymbol": "ATM",
            "p3d": {
              "x": -0.0096,
              "y": 0.0045,
              "z": -0.0011
            }
          }
        ],
        "bonds": []
      },
      "vertexId": 144238,
      "buildingBlockId": 78,
      "buildingBlockType": "FRAGMENT",
      "isRCV": true,
      "properties": {
        "ATTACHMENT_POINTS": "1#ATminus:0:ANY:0.0109%-0.0071%0.0026 "
      },
      "uniquefyingPropertyKeys": [],
      "allowedMutationTypes": [
        "DELETE",
        "EXTEND",
        "CHANGEBRANCH",
        "CHANGELINK",
        "ADDLINK",
        "DELETELINK",
        "DELETECHAIN"
      ],
      "vertexType": "MolecularFragment"
    },
    {
      "lstAPs": [
        {
          "id": 434281,
          "atomPositionNumber": 0,
          "atomPositionNumberInMol": 26,
          "apClass": {
            "rule": "SubRS",
            "subClass": 1,
            "bndTyp": "SINGLE"
          },
          "dirVec": {
            "x": 0.2865,
            "y": 0.3959,
            "z": -0.6387
          }
        }
      ],
      "lstSymAPs": [],
      "mol": {
        "atoms": [
          {
            "elSymbol": "C",
            "p3d": {
              "x": 0.3969,
              "y": -0.0496,
              "z": 0.8235
            }
          },
          {
            "elSymbol": "H",
            "p3d": {
              "x": -0.6146,
              "y": -0.163,
              "z": 1.2402
            }
          },
          {
            "elSymbol": "H",
            "p3d": {
              "x": 0.9335,
              "y": -0.9979,
              "z": 0.8998
            }
          },
          {
            "elSymbol": "H",
            "p3d": {
              "x": 0.9252,
              "y": 0.7237,
              "z": 1.3995
            }
          }
        ],
        "bonds": [
          {
            "atomIds": [
              0,
              1
            ],
            "bo": "SINGLE"
          },
          {
            "atomIds": [
              0,
              2
            ],
            "bo": "SINGLE"
          },
          {
            "atomIds": [
              0,
              3
            ],
            "bo": "SINGLE"
          }
        ]
      },
      "vertexId": 144239,
      "buildingBlockId": 23,
      "buildingBlockType": "FRAGMENT",
      "isRCV": false,
      "properties": {
        "ATTACHMENT_POINTS": "1#SubRS:1:SINGLE:0.2865%0.3959%-0.6387 "
      },
      "uniquefyingPropertyKeys": [],
      "allowedMutationTypes": [
        "DELETE",
        "EXTEND",
        "CHANGEBRANCH",
        "CHANGELINK",
        "ADDLINK",
        "DELETELINK",
        "DELETECHAIN"
      ],
      "vertexType": "MolecularFragment"
    },
    {
      "lstAPs": [
        {
          "id": 434366,
          "atomPositionNumber": 1,
          "atomPositionNumberInMol": 9,
          "apClass": {
            "rule": "SubRS",
            "subClass": 1,
            "bndTyp": "SINGLE"
          },
          "dirVec": {
            "x": 0.2985,
            "y": 0.384,
            "z": -0.6258
          }
        }
      ],
      "lstSymAPs": [],
      "mol": {
        "atoms": [
          {
            "elSymbol": "C",
            "p3d": {
              "x": -1.0244,
              "y": -0.2225,
              "z": 1.3991
            }
          },
          {
            "elSymbol": "C",
            "p3d": {
              "x": 0.3973,
              "y": -0.042,
              "z": 0.8195
            }
          },
          {
            "elSymbol": "H",
            "p3d": {
              "x": -1.5635,
              "y": -0.9908,
              "z": 0.8263
            }
          },
          {
            "elSymbol": "H",
            "p3d": {
              "x": -0.941,
              "y": -0.535,
              "z": 2.446
            }
          },
          {
            "elSymbol": "H",
            "p3d": {
              "x": -1.5586,
              "y": 0.7335,
              "z": 1.3382
            }
          },
          {
            "elSymbol": "H",
            "p3d": {
              "x": 0.9335,
              "y": 0.7221,
              "z": 1.4011
            }
          },
          {
            "elSymbol": "H",
            "p3d": {
              "x": 0.927,
              "y": -1.0102,
              "z": 0.9001
            }
          }
        ],
        "bonds": [
          {
            "atomIds": [
              0,
              1
            ],
            "bo": "SINGLE"
          },
          {
            "atomIds": [
              0,
              2
            ],
            "bo": "SINGLE"
          },
          {
            "atomIds": [
              0,
              3
            ],
            "bo": "SINGLE"
          },
          {
            "atomIds": [
              0,
              4
            ],
            "bo": "SINGLE"
          },
          {
            "atomIds": [
              1,
              5
            ],
            "bo": "SINGLE"
          },
          {
            "atomIds": [
              1,
              6
            ],
            "bo": "SINGLE"
          }
        ]
      },
      "vertexId": 492831,
      "buildingBlockId": 24,
      "buildingBlockType": "FRAGMENT",
      "isRCV": false,
      "properties": {
        "ATTACHMENT_POINTS": "2#SubRS:1:SINGLE:0.2985%0.3840%-0.6258 "
      },
      "uniquefyingPropertyKeys": [],
      "allowedMutationTypes": [
        "DELETE",
        "EXTEND",
        "CHANGEBRANCH",
        "CHANGELINK",
        "ADDLINK",
        "DELETELINK",
        "DELETECHAIN"
      ],
      "vertexType": "MolecularFragment"
    }
  ],
  "gEdges": [
    {
      "srcAPID": 434257,
      "trgAPID": 434261,
      "bondType": "SINGLE"
    },
    {
      "srcAPID": 434258,
      "trgAPID": 434262,
      "bondType": "SINGLE"
    },
    {
      "srcAPID": 434259,
      "trgAPID": 434263,
      "bondType": "SINGLE"
    },
    {
      "srcAPID": 434256,
      "trgAPID": 434264,
      "bondType": "SINGLE"
    },
    {
      "srcAPID": 434255,
      "trgAPID": 434266,
      "bondType": "SINGLE"
    },
    {
      "srcAPID": 434267,
      "trgAPID": 434268,
      "bondType": "SINGLE"
    },
    {
      "srcAPID": 434265,
      "trgAPID": 434272,
      "bondType": "SINGLE"
    },
    {
      "srcAPID": 434269,
      "trgAPID": 434276,
      "bondType": "SINGLE"
    },
    {
      "srcAPID": 434275,
      "trgAPID": 434277,
      "bondType": "SINGLE"
    },
    {
      "srcAPID": 434270,
      "trgAPID": 434278,
      "bondType": "SINGLE"
    },
    {
      "srcAPID": 434271,
      "trgAPID": 434279,
      "bondType": "SINGLE"
    },
    {
      "srcAPID": 434273,
      "trgAPID": 434280,
      "bondType": "SINGLE"
    },
    {
      "srcAPID": 434274,
      "trgAPID": 434281,
      "bondType": "SINGLE"
    },
    {
      "srcAPID": 434260,
      "trgAPID": 434366,
      "bondType": "SINGLE"
    }
  ],
  "gRings": [
    {
      "vertices": [
        144228,
        144227,
        144226,
        144231,
        144232,
        144234
      ],
      "bndTyp": "SINGLE"
    },
    {
      "vertices": [
        144229,
        144227,
        144226,
        144230,
        144233,
        144238
      ],
      "bndTyp": "SINGLE"
    }
  ],
  "symVertices": [
    {
      "symIds": [
        144228,
        144229
      ]
    },
    {
      "symIds": [
        144230,
        144231
      ]
    },
    {
      "symIds": [
        144232,
        144233
      ]
    },
    {
      "symIds": [
        144234,
        144238
      ]
    },
    {
      "symIds": [
        144236,
        144239
      ]
    },
    {
      "symIds": [
        144235,
        144237
      ]
    }
  ]
}

> <SMILES>
[Pt]12(C#O)[P](C(C([H])([H])[H])([H])[H])(C=3C(=C(C(=C(C3S1)[H])C([H])([H])[H])[H])[H])C=4C(=C(C(=C(C4S2)[H])C([H])([H])[H])[H])[H]

$$$$
