M00004017
  CDK     05032208083D

 54 59  0  0  0  0  0  0  0  0999 V2000
   -0.0131    0.0414   -0.7099 Pt  0  0  0  0  0  0  0  0  0  0  0  0
    0.0126    0.0362   -2.6607 C   0  0  0  0  0  0  0  0  0  0  0  0
    0.0211    0.0064   -3.8027 O   0  0  0  0  0  0  0  0  0  0  0  0
   -0.0182   -0.0554    1.5629 P   0  0  0  0  0  0  0  0  0  0  0  0
   -1.1346   -1.3686    2.2768 C   0  0  0  0  0  0  0  0  0  0  0  0
   -1.1277   -1.3751    3.3720 H   0  0  0  0  0  0  0  0  0  0  0  0
   -2.1742   -1.2350    1.9392 H   0  0  0  0  0  0  0  0  0  0  0  0
   -0.8373   -2.3775    1.9299 H   0  0  0  0  0  0  0  0  0  0  0  0
    0.0993    2.0053   -0.6881 N   0  0  0  0  0  0  0  0  0  0  0  0
   -0.8875    2.8643   -0.1526 C   0  0  0  0  0  0  0  0  0  0  0  0
   -0.5080    4.1890   -0.2964 C   0  0  0  0  0  0  0  0  0  0  0  0
    0.7749    4.1932   -0.9519 C   0  0  0  0  0  0  0  0  0  0  0  0
    1.6574    5.2041   -1.3667 C   0  0  0  0  0  0  0  0  0  0  0  0
    2.8474    4.8412   -1.9809 C   0  0  0  0  0  0  0  0  0  0  0  0
    3.1861    3.4820   -2.1946 C   0  0  0  0  0  0  0  0  0  0  0  0
    2.3438    2.4537   -1.8014 C   0  0  0  0  0  0  0  0  0  0  0  0
    1.1337    2.8165   -1.1811 C   0  0  0  0  0  0  0  0  0  0  0  0
   -1.0495    5.0588    0.0052 H   0  0  0  0  0  0  0  0  0  0  0  0
    1.4010    6.2479   -1.2063 H   0  0  0  0  0  0  0  0  0  0  0  0
    3.5429    5.6089   -2.3114 H   0  0  0  0  0  0  0  0  0  0  0  0
    4.1322    3.2512   -2.6809 H   0  0  0  0  0  0  0  0  0  0  0  0
    2.5982    1.4109   -1.9553 H   0  0  0  0  0  0  0  0  0  0  0  0
   -2.0904    2.2559    0.4844 C   0  0  0  0  0  0  0  0  0  0  0  0
   -1.8980    2.0310    1.9975 C   0  0  0  0  0  0  0  0  0  0  0  0
   -0.5041    1.5576    2.4094 C   0  0  0  0  0  0  0  0  0  0  0  0
   -2.9685    2.9193    0.3249 H   0  0  0  0  0  0  0  0  0  0  0  0
   -2.3596    1.3033   -0.0292 H   0  0  0  0  0  0  0  0  0  0  0  0
   -2.0897    2.9961    2.5192 H   0  0  0  0  0  0  0  0  0  0  0  0
   -2.6840    1.3423    2.3680 H   0  0  0  0  0  0  0  0  0  0  0  0
    0.2436    2.3440    2.1452 H   0  0  0  0  0  0  0  0  0  0  0  0
   -0.4497    1.4432    3.5092 H   0  0  0  0  0  0  0  0  0  0  0  0
   -0.0989   -1.9160   -0.6137 N   0  0  0  0  0  0  0  0  0  0  0  0
    0.9528   -2.7497   -0.1718 C   0  0  0  0  0  0  0  0  0  0  0  0
    0.5622   -4.0798   -0.2087 C   0  0  0  0  0  0  0  0  0  0  0  0
   -0.7895   -4.1128   -0.7039 C   0  0  0  0  0  0  0  0  0  0  0  0
   -1.7128   -5.1399   -0.9636 C   0  0  0  0  0  0  0  0  0  0  0  0
   -2.9689   -4.8020   -1.4443 C   0  0  0  0  0  0  0  0  0  0  0  0
   -3.3356   -3.4522   -1.6774 C   0  0  0  0  0  0  0  0  0  0  0  0
   -2.4558   -2.4097   -1.4356 C   0  0  0  0  0  0  0  0  0  0  0  0
   -1.1781   -2.7480   -0.9503 C   0  0  0  0  0  0  0  0  0  0  0  0
    1.1416   -4.9361    0.0599 H   0  0  0  0  0  0  0  0  0  0  0  0
   -1.4349   -6.1761   -0.7898 H   0  0  0  0  0  0  0  0  0  0  0  0
   -3.6973   -5.5818   -1.6542 H   0  0  0  0  0  0  0  0  0  0  0  0
   -4.3337   -3.2424   -2.0577 H   0  0  0  0  0  0  0  0  0  0  0  0
   -2.7251   -1.3734   -1.6100 H   0  0  0  0  0  0  0  0  0  0  0  0
    2.2332   -2.1324    0.2802 C   0  0  0  0  0  0  0  0  0  0  0  0
    2.2214   -1.8074    1.7863 C   0  0  0  0  0  0  0  0  0  0  0  0
    1.7479   -0.3972    2.1361 C   0  0  0  0  0  0  0  0  0  0  0  0
    3.0671   -2.8363    0.0654 H   0  0  0  0  0  0  0  0  0  0  0  0
    2.4651   -1.2229   -0.3208 H   0  0  0  0  0  0  0  0  0  0  0  0
    1.6310   -2.5770    2.3282 H   0  0  0  0  0  0  0  0  0  0  0  0
    3.2569   -1.9227    2.1765 H   0  0  0  0  0  0  0  0  0  0  0  0
    1.8308   -0.2333    3.2292 H   0  0  0  0  0  0  0  0  0  0  0  0
    2.4206    0.3569    1.6665 H   0  0  0  0  0  0  0  0  0  0  0  0
  2  3  3  0  0  0  0
  1  2  1  0  0  0  0
  1  4  1  0  0  0  0
  5  6  1  0  0  0  0
  5  7  1  0  0  0  0
  5  8  1  0  0  0  0
  4  5  1  0  0  0  0
 10  9  1  0  0  0  0
 11 10  2  0  0  0  0
 12 11  1  0  0  0  0
 12 17  1  0  0  0  0
 13 12  2  0  0  0  0
 14 13  1  0  0  0  0
 15 14  2  0  0  0  0
 16 15  1  0  0  0  0
 16 17  2  0  0  0  0
 17  9  1  0  0  0  0
 18 11  1  0  0  0  0
 19 13  1  0  0  0  0
 20 14  1  0  0  0  0
 21 15  1  0  0  0  0
 22 16  1  0  0  0  0
  1  9  1  0  0  0  0
 23 24  1  0  0  0  0
 24 25  1  0  0  0  0
 23 26  1  0  0  0  0
 23 27  1  0  0  0  0
 24 28  1  0  0  0  0
 24 29  1  0  0  0  0
 25 30  1  0  0  0  0
 25 31  1  0  0  0  0
 10 23  1  0  0  0  0
 33 32  1  0  0  0  0
 34 33  2  0  0  0  0
 35 34  1  0  0  0  0
 35 40  1  0  0  0  0
 36 35  2  0  0  0  0
 37 36  1  0  0  0  0
 38 37  2  0  0  0  0
 39 38  1  0  0  0  0
 39 40  2  0  0  0  0
 40 32  1  0  0  0  0
 41 34  1  0  0  0  0
 42 36  1  0  0  0  0
 43 37  1  0  0  0  0
 44 38  1  0  0  0  0
 45 39  1  0  0  0  0
  1 32  1  0  0  0  0
 46 47  1  0  0  0  0
 47 48  1  0  0  0  0
 46 49  1  0  0  0  0
 46 50  1  0  0  0  0
 47 51  1  0  0  0  0
 47 52  1  0  0  0  0
 48 53  1  0  0  0  0
 48 54  1  0  0  0  0
 33 46  1  0  0  0  0
  4 25  1  0  0  0  0
  4 48  1  0  0  0  0
M  END
> <PM6_ENERGY>
120.335

> <UID>
RKTHSTYBADBAIU-CSCDHRDVNA-N

> <FITNESS>
1.14242

> <GCODE>
14464

> <GraphENC>
14464 128042_1_0,128043_3_1,128044_78_1,128045_78_1,128046_75_1,128047_75_1,128048_65_1,128049_65_1,128050_79_1,128051_79_1,519556_24_1, 128042_2_128043_3_SINGLE_scaff:0_MBisAminoPhosphine:1,128043_0_128044_0_SINGLE_LBisAminoPhosphineN:0_ATplus:0,128043_1_128045_0_SINGLE_LBisAminoPhosphineN:0_ATplus:0,128042_0_128046_0_SINGLE_Xlig:0_Xlig:1,128042_1_128047_0_SINGLE_Xlig:0_Xlig:1,128047_1_128048_0_SINGLE_bridge:1_bridge:0,128046_1_128049_0_SINGLE_bridge:1_bridge:0,128048_1_128050_0_SINGLE_bridge:0_ATminus:0,128049_1_128051_0_SINGLE_bridge:0_ATminus:0,128043_2_519556_0_SINGLE_LBisAminoPhosphineSubR:0_SubRS:1, DENOPTIMRing [vertices=[128045_78_1, 128043_3_1, 128042_1_0, 128047_75_1, 128048_65_1, 128050_79_1]] DENOPTIMRing [vertices=[128044_78_1, 128043_3_1, 128042_1_0, 128046_75_1, 128049_65_1, 128051_79_1]] SymmetricSet [symIds=[128044, 128045]] SymmetricSet [symIds=[128046, 128047]] SymmetricSet [symIds=[128048, 128049]] SymmetricSet [symIds=[128050, 128051]] 

> <GraphJson>
{
  "graphId": 14464,
  "gVertices": [
    {
      "lstAPs": [
        {
          "id": 478685,
          "atomPositionNumber": 0,
          "atomPositionNumberInMol": 0,
          "apClass": {
            "rule": "Xlig",
            "subClass": 0,
            "bndTyp": "SINGLE"
          },
          "dirVec": {
            "x": -2.3339,
            "y": -0.0087,
            "z": 0.8172
          }
        },
        {
          "id": 478686,
          "atomPositionNumber": 0,
          "atomPositionNumberInMol": 0,
          "apClass": {
            "rule": "Xlig",
            "subClass": 0,
            "bndTyp": "SINGLE"
          },
          "dirVec": {
            "x": 2.336,
            "y": -5.0E-4,
            "z": 0.829
          }
        },
        {
          "id": 478687,
          "atomPositionNumber": 0,
          "atomPositionNumberInMol": 0,
          "apClass": {
            "rule": "scaff",
            "subClass": 0,
            "bndTyp": "SINGLE"
          },
          "dirVec": {
            "x": -0.0095,
            "y": 0.0046,
            "z": -1.7113
          }
        }
      ],
      "lstSymAPs": [
        {
          "symIds": [
            0,
            1
          ]
        }
      ],
      "mol": {
        "atoms": [
          {
            "elSymbol": "Pt",
            "p3d": {
              "x": -0.0098,
              "y": 0.0049,
              "z": 0.6289
            }
          },
          {
            "elSymbol": "C",
            "p3d": {
              "x": -6.0E-4,
              "y": 0.0016,
              "z": 2.5609
            }
          },
          {
            "elSymbol": "O",
            "p3d": {
              "x": 0.0025,
              "y": -0.0041,
              "z": 3.6974
            }
          },
          {
            "elSymbol": "Du",
            "p3d": {
              "x": -0.007,
              "y": 1.0013,
              "z": 0.6372
            }
          },
          {
            "elSymbol": "Du",
            "p3d": {
              "x": -0.0014,
              "y": 0.9902,
              "z": 2.5698
            }
          }
        ],
        "bonds": [
          {
            "atomIds": [
              1,
              2
            ],
            "bo": "TRIPLE"
          },
          {
            "atomIds": [
              0,
              1
            ],
            "bo": "SINGLE"
          },
          {
            "atomIds": [
              3,
              0
            ],
            "bo": "SINGLE"
          },
          {
            "atomIds": [
              4,
              1
            ],
            "bo": "SINGLE"
          }
        ]
      },
      "vertexId": 128042,
      "buildingBlockId": 0,
      "buildingBlockType": "SCAFFOLD",
      "isRCV": false,
      "properties": {
        "ATTACHMENT_POINTS": "1#Xlig:0:SINGLE:-2.3339%-0.0087%0.8172,Xlig:0:SINGLE:2.3360%-0.0005%0.8290,scaff:0:SINGLE:-0.0095%0.0046%-1.7113 "
      },
      "uniquefyingPropertyKeys": [],
      "allowedMutationTypes": [
        "DELETE",
        "EXTEND",
        "CHANGEBRANCH",
        "CHANGELINK",
        "ADDLINK",
        "DELETELINK",
        "DELETECHAIN"
      ],
      "vertexType": "MolecularFragment"
    },
    {
      "lstAPs": [
        {
          "id": 478688,
          "atomPositionNumber": 0,
          "atomPositionNumberInMol": 5,
          "apClass": {
            "rule": "LBisAminoPhosphineN",
            "subClass": 0,
            "bndTyp": "SINGLE"
          },
          "dirVec": {
            "x": -1.4836542747353576,
            "y": -0.4538975253672072,
            "z": -2.2251740958626516
          }
        },
        {
          "id": 478689,
          "atomPositionNumber": 0,
          "atomPositionNumberInMol": 5,
          "apClass": {
            "rule": "LBisAminoPhosphineN",
            "subClass": 0,
            "bndTyp": "SINGLE"
          },
          "dirVec": {
            "x": 1.1239153761877054,
            "y": -1.005409361745156,
            "z": -2.3783491914885553
          }
        },
        {
          "id": 478690,
          "atomPositionNumber": 0,
          "atomPositionNumberInMol": 5,
          "apClass": {
            "rule": "LBisAminoPhosphineSubR",
            "subClass": 0,
            "bndTyp": "SINGLE"
          },
          "dirVec": {
            "x": 0.3436803425970725,
            "y": 1.5383345352575741,
            "z": -2.5539605203349587
          }
        },
        {
          "id": 478691,
          "atomPositionNumber": 0,
          "atomPositionNumberInMol": 5,
          "apClass": {
            "rule": "MBisAminoPhosphine",
            "subClass": 1,
            "bndTyp": "SINGLE"
          },
          "dirVec": {
            "x": -0.009795376095970013,
            "y": 0.004895376095970078,
            "z": 0.5928304659627013
          }
        }
      ],
      "lstSymAPs": [
        {
          "symIds": [
            0,
            1
          ]
        }
      ],
      "mol": {
        "atoms": [
          {
            "elSymbol": "P",
            "p3d": {
              "x": -0.009504623904029987,
              "y": 0.004604623904029922,
              "z": -1.6752304659627018
            }
          }
        ],
        "bonds": []
      },
      "vertexId": 128043,
      "buildingBlockId": 2,
      "buildingBlockType": "FRAGMENT",
      "isRCV": false,
      "properties": {
        "ATTACHMENT_POINTS": "1#LBisAminoPhosphineN:0:SINGLE:-1.4837%-0.4539%-2.2252,LBisAminoPhosphineN:0:SINGLE:1.1239%-1.0054%-2.3783,LBisAminoPhosphineSubR:0:SINGLE:0.3437%1.5383%-2.5540,MBisAminoPhosphine:1:SINGLE:-0.0098%0.0049%0.5928 "
      },
      "uniquefyingPropertyKeys": [],
      "allowedMutationTypes": [
        "DELETE",
        "EXTEND",
        "CHANGEBRANCH",
        "CHANGELINK",
        "ADDLINK",
        "DELETELINK",
        "DELETECHAIN"
      ],
      "vertexType": "MolecularFragment"
    },
    {
      "lstAPs": [
        {
          "id": 478692,
          "atomPositionNumber": 0,
          "atomPositionNumberInMol": 6,
          "apClass": {
            "rule": "ATplus",
            "subClass": 0,
            "bndTyp": "ANY"
          },
          "dirVec": {
            "x": -1.4836542747353576,
            "y": -0.4538975253672072,
            "z": -2.2251740958626516
          }
        }
      ],
      "lstSymAPs": [],
      "mol": {
        "atoms": [
          {
            "elSymbol": "ATP",
            "p3d": {
              "x": -1.5025369335754468,
              "y": -0.4597705652293772,
              "z": -2.23221842676815
            }
          }
        ],
        "bonds": []
      },
      "vertexId": 128044,
      "buildingBlockId": 77,
      "buildingBlockType": "FRAGMENT",
      "isRCV": true,
      "properties": {
        "ATTACHMENT_POINTS": "1#ATplus:0:ANY:-1.4837%-0.4539%-2.2252 "
      },
      "uniquefyingPropertyKeys": [],
      "allowedMutationTypes": [
        "DELETE",
        "EXTEND",
        "CHANGEBRANCH",
        "CHANGELINK",
        "ADDLINK",
        "DELETELINK",
        "DELETECHAIN"
      ],
      "vertexType": "MolecularFragment"
    },
    {
      "lstAPs": [
        {
          "id": 478693,
          "atomPositionNumber": 0,
          "atomPositionNumberInMol": 7,
          "apClass": {
            "rule": "ATplus",
            "subClass": 0,
            "bndTyp": "ANY"
          },
          "dirVec": {
            "x": 1.1239153761877054,
            "y": -1.005409361745156,
            "z": -2.3783491914885553
          }
        }
      ],
      "lstSymAPs": [],
      "mol": {
        "atoms": [
          {
            "elSymbol": "ATP",
            "p3d": {
              "x": 1.138136532484957,
              "y": -1.018082128019939,
              "z": -2.38717130623015
            }
          }
        ],
        "bonds": []
      },
      "vertexId": 128045,
      "buildingBlockId": 77,
      "buildingBlockType": "FRAGMENT",
      "isRCV": true,
      "properties": {
        "ATTACHMENT_POINTS": "1#ATplus:0:ANY:1.1239%-1.0054%-2.3783 "
      },
      "uniquefyingPropertyKeys": [],
      "allowedMutationTypes": [
        "DELETE",
        "EXTEND",
        "CHANGEBRANCH",
        "CHANGELINK",
        "ADDLINK",
        "DELETELINK",
        "DELETECHAIN"
      ],
      "vertexType": "MolecularFragment"
    },
    {
      "lstAPs": [
        {
          "id": 478694,
          "atomPositionNumber": 0,
          "atomPositionNumberInMol": 12,
          "apClass": {
            "rule": "Xlig",
            "subClass": 1,
            "bndTyp": "SINGLE"
          },
          "dirVec": {
            "x": 1.6157,
            "y": 4.174,
            "z": -3.9778
          }
        },
        {
          "id": 478695,
          "atomPositionNumber": 1,
          "atomPositionNumberInMol": 13,
          "apClass": {
            "rule": "bridge",
            "subClass": 1,
            "bndTyp": "SINGLE"
          },
          "dirVec": {
            "x": 1.8005,
            "y": 5.9885,
            "z": -1.6916
          }
        }
      ],
      "lstSymAPs": [],
      "mol": {
        "atoms": [
          {
            "elSymbol": "N",
            "p3d": {
              "x": 3.2459,
              "y": 5.1712,
              "z": -3.4361
            }
          },
          {
            "elSymbol": "C",
            "p3d": {
              "x": 3.1168,
              "y": 5.9027,
              "z": -2.2546
            }
          },
          {
            "elSymbol": "C",
            "p3d": {
              "x": 4.3191,
              "y": 6.5056,
              "z": -1.9234
            }
          },
          {
            "elSymbol": "C",
            "p3d": {
              "x": 5.2572,
              "y": 6.1707,
              "z": -2.9298
            }
          },
          {
            "elSymbol": "C",
            "p3d": {
              "x": 6.582,
              "y": 6.5002,
              "z": -3.1678
            }
          },
          {
            "elSymbol": "C",
            "p3d": {
              "x": 7.1905,
              "y": 6.1037,
              "z": -4.3266
            }
          },
          {
            "elSymbol": "C",
            "p3d": {
              "x": 6.49,
              "y": 5.3293,
              "z": -5.2524
            }
          },
          {
            "elSymbol": "C",
            "p3d": {
              "x": 5.1723,
              "y": 4.9274,
              "z": -5.0458
            }
          },
          {
            "elSymbol": "C",
            "p3d": {
              "x": 4.5534,
              "y": 5.34,
              "z": -3.8694
            }
          },
          {
            "elSymbol": "H",
            "p3d": {
              "x": 4.4846,
              "y": 7.0468,
              "z": -1.1588
            }
          },
          {
            "elSymbol": "H",
            "p3d": {
              "x": 7.0676,
              "y": 7.004,
              "z": -2.5242
            }
          },
          {
            "elSymbol": "H",
            "p3d": {
              "x": 8.0904,
              "y": 6.3555,
              "z": -4.5017
            }
          },
          {
            "elSymbol": "H",
            "p3d": {
              "x": 6.9258,
              "y": 5.0667,
              "z": -6.0535
            }
          },
          {
            "elSymbol": "H",
            "p3d": {
              "x": 4.714,
              "y": 4.3942,
              "z": -5.6832
            }
          }
        ],
        "bonds": [
          {
            "atomIds": [
              1,
              0
            ],
            "bo": "SINGLE"
          },
          {
            "atomIds": [
              2,
              1
            ],
            "bo": "DOUBLE"
          },
          {
            "atomIds": [
              3,
              2
            ],
            "bo": "SINGLE"
          },
          {
            "atomIds": [
              3,
              8
            ],
            "bo": "SINGLE"
          },
          {
            "atomIds": [
              4,
              3
            ],
            "bo": "DOUBLE"
          },
          {
            "atomIds": [
              5,
              4
            ],
            "bo": "SINGLE"
          },
          {
            "atomIds": [
              6,
              5
            ],
            "bo": "DOUBLE"
          },
          {
            "atomIds": [
              7,
              6
            ],
            "bo": "SINGLE"
          },
          {
            "atomIds": [
              7,
              8
            ],
            "bo": "DOUBLE"
          },
          {
            "atomIds": [
              8,
              0
            ],
            "bo": "SINGLE"
          },
          {
            "atomIds": [
              9,
              2
            ],
            "bo": "SINGLE"
          },
          {
            "atomIds": [
              10,
              4
            ],
            "bo": "SINGLE"
          },
          {
            "atomIds": [
              11,
              5
            ],
            "bo": "SINGLE"
          },
          {
            "atomIds": [
              12,
              6
            ],
            "bo": "SINGLE"
          },
          {
            "atomIds": [
              13,
              7
            ],
            "bo": "SINGLE"
          }
        ]
      },
      "vertexId": 128046,
      "buildingBlockId": 74,
      "buildingBlockType": "FRAGMENT",
      "isRCV": false,
      "properties": {
        "ATTACHMENT_POINTS": "1#Xlig:1:SINGLE:1.6157%4.1740%-3.9778 2#bridge:1:SINGLE:1.8005%5.9885%-1.6916 "
      },
      "uniquefyingPropertyKeys": [],
      "allowedMutationTypes": [
        "DELETE",
        "EXTEND",
        "CHANGEBRANCH",
        "CHANGELINK",
        "ADDLINK",
        "DELETELINK",
        "DELETECHAIN"
      ],
      "vertexType": "MolecularFragment"
    },
    {
      "lstAPs": [
        {
          "id": 478696,
          "atomPositionNumber": 0,
          "atomPositionNumberInMol": 36,
          "apClass": {
            "rule": "Xlig",
            "subClass": 1,
            "bndTyp": "SINGLE"
          },
          "dirVec": {
            "x": 1.6157,
            "y": 4.174,
            "z": -3.9778
          }
        },
        {
          "id": 478697,
          "atomPositionNumber": 1,
          "atomPositionNumberInMol": 37,
          "apClass": {
            "rule": "bridge",
            "subClass": 1,
            "bndTyp": "SINGLE"
          },
          "dirVec": {
            "x": 1.8005,
            "y": 5.9885,
            "z": -1.6916
          }
        }
      ],
      "lstSymAPs": [],
      "mol": {
        "atoms": [
          {
            "elSymbol": "N",
            "p3d": {
              "x": 3.2459,
              "y": 5.1712,
              "z": -3.4361
            }
          },
          {
            "elSymbol": "C",
            "p3d": {
              "x": 3.1168,
              "y": 5.9027,
              "z": -2.2546
            }
          },
          {
            "elSymbol": "C",
            "p3d": {
              "x": 4.3191,
              "y": 6.5056,
              "z": -1.9234
            }
          },
          {
            "elSymbol": "C",
            "p3d": {
              "x": 5.2572,
              "y": 6.1707,
              "z": -2.9298
            }
          },
          {
            "elSymbol": "C",
            "p3d": {
              "x": 6.582,
              "y": 6.5002,
              "z": -3.1678
            }
          },
          {
            "elSymbol": "C",
            "p3d": {
              "x": 7.1905,
              "y": 6.1037,
              "z": -4.3266
            }
          },
          {
            "elSymbol": "C",
            "p3d": {
              "x": 6.49,
              "y": 5.3293,
              "z": -5.2524
            }
          },
          {
            "elSymbol": "C",
            "p3d": {
              "x": 5.1723,
              "y": 4.9274,
              "z": -5.0458
            }
          },
          {
            "elSymbol": "C",
            "p3d": {
              "x": 4.5534,
              "y": 5.34,
              "z": -3.8694
            }
          },
          {
            "elSymbol": "H",
            "p3d": {
              "x": 4.4846,
              "y": 7.0468,
              "z": -1.1588
            }
          },
          {
            "elSymbol": "H",
            "p3d": {
              "x": 7.0676,
              "y": 7.004,
              "z": -2.5242
            }
          },
          {
            "elSymbol": "H",
            "p3d": {
              "x": 8.0904,
              "y": 6.3555,
              "z": -4.5017
            }
          },
          {
            "elSymbol": "H",
            "p3d": {
              "x": 6.9258,
              "y": 5.0667,
              "z": -6.0535
            }
          },
          {
            "elSymbol": "H",
            "p3d": {
              "x": 4.714,
              "y": 4.3942,
              "z": -5.6832
            }
          }
        ],
        "bonds": [
          {
            "atomIds": [
              1,
              0
            ],
            "bo": "SINGLE"
          },
          {
            "atomIds": [
              2,
              1
            ],
            "bo": "DOUBLE"
          },
          {
            "atomIds": [
              3,
              2
            ],
            "bo": "SINGLE"
          },
          {
            "atomIds": [
              3,
              8
            ],
            "bo": "SINGLE"
          },
          {
            "atomIds": [
              4,
              3
            ],
            "bo": "DOUBLE"
          },
          {
            "atomIds": [
              5,
              4
            ],
            "bo": "SINGLE"
          },
          {
            "atomIds": [
              6,
              5
            ],
            "bo": "DOUBLE"
          },
          {
            "atomIds": [
              7,
              6
            ],
            "bo": "SINGLE"
          },
          {
            "atomIds": [
              7,
              8
            ],
            "bo": "DOUBLE"
          },
          {
            "atomIds": [
              8,
              0
            ],
            "bo": "SINGLE"
          },
          {
            "atomIds": [
              9,
              2
            ],
            "bo": "SINGLE"
          },
          {
            "atomIds": [
              10,
              4
            ],
            "bo": "SINGLE"
          },
          {
            "atomIds": [
              11,
              5
            ],
            "bo": "SINGLE"
          },
          {
            "atomIds": [
              12,
              6
            ],
            "bo": "SINGLE"
          },
          {
            "atomIds": [
              13,
              7
            ],
            "bo": "SINGLE"
          }
        ]
      },
      "vertexId": 128047,
      "buildingBlockId": 74,
      "buildingBlockType": "FRAGMENT",
      "isRCV": false,
      "properties": {
        "ATTACHMENT_POINTS": "1#Xlig:1:SINGLE:1.6157%4.1740%-3.9778 2#bridge:1:SINGLE:1.8005%5.9885%-1.6916 "
      },
      "uniquefyingPropertyKeys": [],
      "allowedMutationTypes": [
        "DELETE",
        "EXTEND",
        "CHANGEBRANCH",
        "CHANGELINK",
        "ADDLINK",
        "DELETELINK",
        "DELETECHAIN"
      ],
      "vertexType": "MolecularFragment"
    },
    {
      "lstAPs": [
        {
          "id": 478698,
          "atomPositionNumber": 0,
          "atomPositionNumberInMol": 50,
          "apClass": {
            "rule": "bridge",
            "subClass": 0,
            "bndTyp": "SINGLE"
          },
          "dirVec": {
            "x": -1.2321,
            "y": -0.7501,
            "z": -0.255
          }
        },
        {
          "id": 478699,
          "atomPositionNumber": 2,
          "atomPositionNumberInMol": 52,
          "apClass": {
            "rule": "bridge",
            "subClass": 0,
            "bndTyp": "SINGLE"
          },
          "dirVec": {
            "x": 1.2657,
            "y": -0.692,
            "z": -0.255
          }
        }
      ],
      "lstSymAPs": [
        {
          "symIds": [
            0,
            1
          ]
        }
      ],
      "mol": {
        "atoms": [
          {
            "elSymbol": "C",
            "p3d": {
              "x": -1.2657,
              "y": 0.692,
              "z": 0.255
            }
          },
          {
            "elSymbol": "C",
            "p3d": {
              "x": -0.0335,
              "y": 1.4421,
              "z": -0.255
            }
          },
          {
            "elSymbol": "C",
            "p3d": {
              "x": 1.2321,
              "y": 0.7501,
              "z": 0.255
            }
          },
          {
            "elSymbol": "H",
            "p3d": {
              "x": -2.1673,
              "y": 1.1851,
              "z": -0.1083
            }
          },
          {
            "elSymbol": "H",
            "p3d": {
              "x": -1.2657,
              "y": 0.692,
              "z": 1.345
            }
          },
          {
            "elSymbol": "H",
            "p3d": {
              "x": -0.0335,
              "y": 1.4421,
              "z": -1.345
            }
          },
          {
            "elSymbol": "H",
            "p3d": {
              "x": -0.0574,
              "y": 2.4695,
              "z": 0.1083
            }
          },
          {
            "elSymbol": "H",
            "p3d": {
              "x": 2.11,
              "y": 1.2844,
              "z": -0.1083
            }
          },
          {
            "elSymbol": "H",
            "p3d": {
              "x": 1.2321,
              "y": 0.7501,
              "z": 1.345
            }
          }
        ],
        "bonds": [
          {
            "atomIds": [
              0,
              1
            ],
            "bo": "SINGLE"
          },
          {
            "atomIds": [
              1,
              2
            ],
            "bo": "SINGLE"
          },
          {
            "atomIds": [
              0,
              3
            ],
            "bo": "SINGLE"
          },
          {
            "atomIds": [
              0,
              4
            ],
            "bo": "SINGLE"
          },
          {
            "atomIds": [
              1,
              5
            ],
            "bo": "SINGLE"
          },
          {
            "atomIds": [
              1,
              6
            ],
            "bo": "SINGLE"
          },
          {
            "atomIds": [
              2,
              7
            ],
            "bo": "SINGLE"
          },
          {
            "atomIds": [
              2,
              8
            ],
            "bo": "SINGLE"
          }
        ]
      },
      "vertexId": 128048,
      "buildingBlockId": 64,
      "buildingBlockType": "FRAGMENT",
      "isRCV": false,
      "properties": {
        "ATTACHMENT_POINTS": "1#bridge:0:SINGLE:-1.2321%-0.7501%-0.2550 3#bridge:0:SINGLE:1.2657%-0.6920%-0.2550 "
      },
      "uniquefyingPropertyKeys": [],
      "allowedMutationTypes": [
        "DELETE",
        "EXTEND",
        "CHANGEBRANCH",
        "CHANGELINK",
        "ADDLINK",
        "DELETELINK",
        "DELETECHAIN"
      ],
      "vertexType": "MolecularFragment"
    },
    {
      "lstAPs": [
        {
          "id": 478700,
          "atomPositionNumber": 0,
          "atomPositionNumberInMol": 26,
          "apClass": {
            "rule": "bridge",
            "subClass": 0,
            "bndTyp": "SINGLE"
          },
          "dirVec": {
            "x": -1.2321,
            "y": -0.7501,
            "z": -0.255
          }
        },
        {
          "id": 478701,
          "atomPositionNumber": 2,
          "atomPositionNumberInMol": 28,
          "apClass": {
            "rule": "bridge",
            "subClass": 0,
            "bndTyp": "SINGLE"
          },
          "dirVec": {
            "x": 1.2657,
            "y": -0.692,
            "z": -0.255
          }
        }
      ],
      "lstSymAPs": [
        {
          "symIds": [
            0,
            1
          ]
        }
      ],
      "mol": {
        "atoms": [
          {
            "elSymbol": "C",
            "p3d": {
              "x": -1.2657,
              "y": 0.692,
              "z": 0.255
            }
          },
          {
            "elSymbol": "C",
            "p3d": {
              "x": -0.0335,
              "y": 1.4421,
              "z": -0.255
            }
          },
          {
            "elSymbol": "C",
            "p3d": {
              "x": 1.2321,
              "y": 0.7501,
              "z": 0.255
            }
          },
          {
            "elSymbol": "H",
            "p3d": {
              "x": -2.1673,
              "y": 1.1851,
              "z": -0.1083
            }
          },
          {
            "elSymbol": "H",
            "p3d": {
              "x": -1.2657,
              "y": 0.692,
              "z": 1.345
            }
          },
          {
            "elSymbol": "H",
            "p3d": {
              "x": -0.0335,
              "y": 1.4421,
              "z": -1.345
            }
          },
          {
            "elSymbol": "H",
            "p3d": {
              "x": -0.0574,
              "y": 2.4695,
              "z": 0.1083
            }
          },
          {
            "elSymbol": "H",
            "p3d": {
              "x": 2.11,
              "y": 1.2844,
              "z": -0.1083
            }
          },
          {
            "elSymbol": "H",
            "p3d": {
              "x": 1.2321,
              "y": 0.7501,
              "z": 1.345
            }
          }
        ],
        "bonds": [
          {
            "atomIds": [
              0,
              1
            ],
            "bo": "SINGLE"
          },
          {
            "atomIds": [
              1,
              2
            ],
            "bo": "SINGLE"
          },
          {
            "atomIds": [
              0,
              3
            ],
            "bo": "SINGLE"
          },
          {
            "atomIds": [
              0,
              4
            ],
            "bo": "SINGLE"
          },
          {
            "atomIds": [
              1,
              5
            ],
            "bo": "SINGLE"
          },
          {
            "atomIds": [
              1,
              6
            ],
            "bo": "SINGLE"
          },
          {
            "atomIds": [
              2,
              7
            ],
            "bo": "SINGLE"
          },
          {
            "atomIds": [
              2,
              8
            ],
            "bo": "SINGLE"
          }
        ]
      },
      "vertexId": 128049,
      "buildingBlockId": 64,
      "buildingBlockType": "FRAGMENT",
      "isRCV": false,
      "properties": {
        "ATTACHMENT_POINTS": "1#bridge:0:SINGLE:-1.2321%-0.7501%-0.2550 3#bridge:0:SINGLE:1.2657%-0.6920%-0.2550 "
      },
      "uniquefyingPropertyKeys": [],
      "allowedMutationTypes": [
        "DELETE",
        "EXTEND",
        "CHANGEBRANCH",
        "CHANGELINK",
        "ADDLINK",
        "DELETELINK",
        "DELETECHAIN"
      ],
      "vertexType": "MolecularFragment"
    },
    {
      "lstAPs": [
        {
          "id": 478702,
          "atomPositionNumber": 0,
          "atomPositionNumberInMol": 59,
          "apClass": {
            "rule": "ATminus",
            "subClass": 0,
            "bndTyp": "ANY"
          },
          "dirVec": {
            "x": 0.0109,
            "y": -0.0071,
            "z": 0.0026
          }
        }
      ],
      "lstSymAPs": [],
      "mol": {
        "atoms": [
          {
            "elSymbol": "ATM",
            "p3d": {
              "x": -0.0096,
              "y": 0.0045,
              "z": -0.0011
            }
          }
        ],
        "bonds": []
      },
      "vertexId": 128050,
      "buildingBlockId": 78,
      "buildingBlockType": "FRAGMENT",
      "isRCV": true,
      "properties": {
        "ATTACHMENT_POINTS": "1#ATminus:0:ANY:0.0109%-0.0071%0.0026 "
      },
      "uniquefyingPropertyKeys": [],
      "allowedMutationTypes": [
        "DELETE",
        "EXTEND",
        "CHANGEBRANCH",
        "CHANGELINK",
        "ADDLINK",
        "DELETELINK",
        "DELETECHAIN"
      ],
      "vertexType": "MolecularFragment"
    },
    {
      "lstAPs": [
        {
          "id": 478703,
          "atomPositionNumber": 0,
          "atomPositionNumberInMol": 35,
          "apClass": {
            "rule": "ATminus",
            "subClass": 0,
            "bndTyp": "ANY"
          },
          "dirVec": {
            "x": 0.0109,
            "y": -0.0071,
            "z": 0.0026
          }
        }
      ],
      "lstSymAPs": [],
      "mol": {
        "atoms": [
          {
            "elSymbol": "ATM",
            "p3d": {
              "x": -0.0096,
              "y": 0.0045,
              "z": -0.0011
            }
          }
        ],
        "bonds": []
      },
      "vertexId": 128051,
      "buildingBlockId": 78,
      "buildingBlockType": "FRAGMENT",
      "isRCV": true,
      "properties": {
        "ATTACHMENT_POINTS": "1#ATminus:0:ANY:0.0109%-0.0071%0.0026 "
      },
      "uniquefyingPropertyKeys": [],
      "allowedMutationTypes": [
        "DELETE",
        "EXTEND",
        "CHANGEBRANCH",
        "CHANGELINK",
        "ADDLINK",
        "DELETELINK",
        "DELETECHAIN"
      ],
      "vertexType": "MolecularFragment"
    },
    {
      "lstAPs": [
        {
          "id": 478772,
          "atomPositionNumber": 0,
          "atomPositionNumberInMol": 8,
          "apClass": {
            "rule": "SubRS",
            "subClass": 1,
            "bndTyp": "SINGLE"
          },
          "dirVec": {
            "x": 0.2865,
            "y": 0.3959,
            "z": -0.6387
          }
        }
      ],
      "lstSymAPs": [],
      "mol": {
        "atoms": [
          {
            "elSymbol": "C",
            "p3d": {
              "x": 0.3969,
              "y": -0.0496,
              "z": 0.8235
            }
          },
          {
            "elSymbol": "H",
            "p3d": {
              "x": -0.6146,
              "y": -0.163,
              "z": 1.2402
            }
          },
          {
            "elSymbol": "H",
            "p3d": {
              "x": 0.9335,
              "y": -0.9979,
              "z": 0.8998
            }
          },
          {
            "elSymbol": "H",
            "p3d": {
              "x": 0.9252,
              "y": 0.7237,
              "z": 1.3995
            }
          }
        ],
        "bonds": [
          {
            "atomIds": [
              0,
              1
            ],
            "bo": "SINGLE"
          },
          {
            "atomIds": [
              0,
              2
            ],
            "bo": "SINGLE"
          },
          {
            "atomIds": [
              0,
              3
            ],
            "bo": "SINGLE"
          }
        ]
      },
      "vertexId": 519556,
      "buildingBlockId": 23,
      "buildingBlockType": "FRAGMENT",
      "isRCV": false,
      "properties": {
        "ATTACHMENT_POINTS": "1#SubRS:1:SINGLE:0.2865%0.3959%-0.6387 "
      },
      "uniquefyingPropertyKeys": [],
      "allowedMutationTypes": [
        "DELETE",
        "EXTEND",
        "CHANGEBRANCH",
        "CHANGELINK",
        "ADDLINK",
        "DELETELINK",
        "DELETECHAIN"
      ],
      "vertexType": "MolecularFragment"
    }
  ],
  "gEdges": [
    {
      "srcAPID": 478687,
      "trgAPID": 478691,
      "bondType": "SINGLE"
    },
    {
      "srcAPID": 478688,
      "trgAPID": 478692,
      "bondType": "SINGLE"
    },
    {
      "srcAPID": 478689,
      "trgAPID": 478693,
      "bondType": "SINGLE"
    },
    {
      "srcAPID": 478685,
      "trgAPID": 478694,
      "bondType": "SINGLE"
    },
    {
      "srcAPID": 478686,
      "trgAPID": 478696,
      "bondType": "SINGLE"
    },
    {
      "srcAPID": 478697,
      "trgAPID": 478698,
      "bondType": "SINGLE"
    },
    {
      "srcAPID": 478695,
      "trgAPID": 478700,
      "bondType": "SINGLE"
    },
    {
      "srcAPID": 478699,
      "trgAPID": 478702,
      "bondType": "SINGLE"
    },
    {
      "srcAPID": 478701,
      "trgAPID": 478703,
      "bondType": "SINGLE"
    },
    {
      "srcAPID": 478690,
      "trgAPID": 478772,
      "bondType": "SINGLE"
    }
  ],
  "gRings": [
    {
      "vertices": [
        128045,
        128043,
        128042,
        128047,
        128048,
        128050
      ],
      "bndTyp": "SINGLE"
    },
    {
      "vertices": [
        128044,
        128043,
        128042,
        128046,
        128049,
        128051
      ],
      "bndTyp": "SINGLE"
    }
  ],
  "symVertices": [
    {
      "symIds": [
        128044,
        128045
      ]
    },
    {
      "symIds": [
        128046,
        128047
      ]
    },
    {
      "symIds": [
        128048,
        128049
      ]
    },
    {
      "symIds": [
        128050,
        128051
      ]
    }
  ]
}

> <SMILES>
[Pt]12(C#O)[P](C([H])([H])[H])(C(C(C([H])([H])C=3N1C=4C(C3[H])=C(C(=C(C4[H])[H])[H])[H])([H])[H])([H])[H])C(C(C([H])([H])C=5N2C=6C(C5[H])=C(C(=C(C6[H])[H])[H])[H])([H])[H])([H])[H]

$$$$
