M00041226
  CDK     05032211223D

 40 42  0  0  0  0  0  0  0  0999 V2000
   -2.1150   -0.3108    0.8387 Pt  0  0  0  0  0  0  0  0  0  0  0  0
   -4.0608   -0.4563    1.0602 C   0  0  0  0  0  0  0  0  0  0  0  0
   -5.1877   -0.5686    1.1920 O   0  0  0  0  0  0  0  0  0  0  0  0
    0.1167   -0.2961    0.6209 P   0  0  0  0  0  0  0  0  0  0  0  0
    0.7957    1.3910    0.2316 C   0  0  0  0  0  0  0  0  0  0  0  0
    1.4298    1.2863   -0.9547 C   0  0  0  0  0  0  0  0  0  0  0  0
    1.3708   -0.0594   -1.6279 C   0  0  0  0  0  0  0  0  0  0  0  0
    0.6843   -1.0338   -0.9894 C   0  0  0  0  0  0  0  0  0  0  0  0
    1.9989   -0.2174   -2.9659 C   0  0  0  0  0  0  0  0  0  0  0  0
    3.0296    0.1653   -2.9871 H   0  0  0  0  0  0  0  0  0  0  0  0
    2.0401   -1.2669   -3.2930 H   0  0  0  0  0  0  0  0  0  0  0  0
    1.4317    0.3328   -3.7350 H   0  0  0  0  0  0  0  0  0  0  0  0
    2.1135    2.4077   -1.6502 C   0  0  0  0  0  0  0  0  0  0  0  0
    1.6164    2.6453   -2.6052 H   0  0  0  0  0  0  0  0  0  0  0  0
    2.1153    3.3358   -1.0606 H   0  0  0  0  0  0  0  0  0  0  0  0
    3.1630    2.1704   -1.8768 H   0  0  0  0  0  0  0  0  0  0  0  0
    1.0691   -1.0204    2.0498 C   0  0  0  0  0  0  0  0  0  0  0  0
    0.5022   -1.8753    2.4773 H   0  0  0  0  0  0  0  0  0  0  0  0
    2.0605   -1.3800    1.7509 H   0  0  0  0  0  0  0  0  0  0  0  0
    1.1993   -0.2901    2.8600 H   0  0  0  0  0  0  0  0  0  0  0  0
   -1.6860   -3.3371    0.1637 S   0  0  0  0  0  0  0  0  0  0  0  0
   -1.4139   -2.2049    1.2994 O   0  0  0  0  0  0  0  0  0  0  0  0
   -2.6087   -2.6544   -0.7423 O   0  0  0  0  0  0  0  0  0  0  0  0
   -2.0329   -4.5991    0.7538 O   0  0  0  0  0  0  0  0  0  0  0  0
    0.2630   -2.3543   -1.5280 C   0  0  0  0  0  0  0  0  0  0  0  0
   -0.0667   -3.4711   -0.5393 C   0  0  0  0  0  0  0  0  0  0  0  0
    1.0598   -2.7276   -2.2162 H   0  0  0  0  0  0  0  0  0  0  0  0
   -0.6278   -2.1751   -2.1921 H   0  0  0  0  0  0  0  0  0  0  0  0
    0.0419   -4.4514   -1.0542 H   0  0  0  0  0  0  0  0  0  0  0  0
    0.7029   -3.5293    0.2590 H   0  0  0  0  0  0  0  0  0  0  0  0
   -2.2119    2.6389    1.5768 S   0  0  0  0  0  0  0  0  0  0  0  0
   -2.3490    1.6447    0.2986 O   0  0  0  0  0  0  0  0  0  0  0  0
   -3.0468    1.9962    2.5859 O   0  0  0  0  0  0  0  0  0  0  0  0
   -2.4351    3.9937    1.1528 O   0  0  0  0  0  0  0  0  0  0  0  0
    0.5438    2.5911    1.0703 C   0  0  0  0  0  0  0  0  0  0  0  0
   -0.5337    2.4826    2.1493 C   0  0  0  0  0  0  0  0  0  0  0  0
    0.2967    3.4524    0.3985 H   0  0  0  0  0  0  0  0  0  0  0  0
    1.5040    2.8814    1.5630 H   0  0  0  0  0  0  0  0  0  0  0  0
   -0.4218    1.5713    2.7712 H   0  0  0  0  0  0  0  0  0  0  0  0
   -0.3513    3.2925    2.8943 H   0  0  0  0  0  0  0  0  0  0  0  0
  2  3  3  0  0  0  0
  1  2  1  0  0  0  0
  5  4  1  0  0  0  0
  6  5  2  0  0  0  0
  7  6  1  0  0  0  0
  8  4  1  0  0  0  0
  7  8  2  0  0  0  0
  1  4  1  0  0  0  0
  9 10  1  0  0  0  0
  9 11  1  0  0  0  0
  9 12  1  0  0  0  0
  7  9  1  0  0  0  0
 13 14  1  0  0  0  0
 13 15  1  0  0  0  0
 13 16  1  0  0  0  0
  6 13  1  0  0  0  0
 17 18  1  0  0  0  0
 17 19  1  0  0  0  0
 17 20  1  0  0  0  0
  4 17  1  0  0  0  0
 21 22  1  0  0  0  0
 23 21  2  0  0  0  0
 24 21  2  0  0  0  0
  1 22  1  0  0  0  0
 25 26  1  0  0  0  0
 25 27  1  0  0  0  0
 25 28  1  0  0  0  0
 26 29  1  0  0  0  0
 26 30  1  0  0  0  0
 21 26  1  0  0  0  0
 31 32  1  0  0  0  0
 33 31  2  0  0  0  0
 34 31  2  0  0  0  0
  1 32  1  0  0  0  0
 35 36  1  0  0  0  0
 35 37  1  0  0  0  0
 35 38  1  0  0  0  0
 36 39  1  0  0  0  0
 36 40  1  0  0  0  0
 31 36  1  0  0  0  0
  8 25  1  0  0  0  0
  5 35  1  0  0  0  0
M  END
> <PM6_ENERGY>
-1040.308

> <UID>
UCHPKHULROPHFY-WOYWCRASNA-L

> <FITNESS>
1.14013

> <GCODE>
52320

> <GraphENC>
52320 201988_1_0,201989_49_1,201990_78_1,201991_78_1,201992_77_1,201993_77_1,201994_66_1,201995_66_1,201996_79_1,201997_79_1,1823117_24_1,1823111_24_1,1823103_24_1, 201988_2_201989_1_SINGLE_scaff:0_MPhosphole:1,201989_5_201990_0_SINGLE_LPhospholeSubAlpha:0_ATplus:0,201989_2_201991_0_SINGLE_LPhospholeSubAlpha:0_ATplus:0,201988_1_201992_0_SINGLE_Xlig:0_Xlig:1,201988_0_201993_0_SINGLE_Xlig:0_Xlig:1,201992_1_201994_0_SINGLE_bridge:1_bridge:0,201993_1_201995_0_SINGLE_bridge:1_bridge:0,201994_1_201996_0_SINGLE_bridge:0_ATminus:0,201995_1_201997_0_SINGLE_bridge:0_ATminus:0,201989_4_1823117_0_SINGLE_LPhospholeSubBeta:0_SubRS:1,201989_3_1823111_0_SINGLE_LPhospholeSubBeta:0_SubRS:1,201989_0_1823103_0_SINGLE_LPhospholeSubR:0_SubRS:1, DENOPTIMRing [vertices=[201990_78_1, 201989_49_1, 201988_1_0, 201992_77_1, 201994_66_1, 201996_79_1]] DENOPTIMRing [vertices=[201991_78_1, 201989_49_1, 201988_1_0, 201993_77_1, 201995_66_1, 201997_79_1]] SymmetricSet [symIds=[201990, 201991]] SymmetricSet [symIds=[201992, 201993]] SymmetricSet [symIds=[201994, 201995]] SymmetricSet [symIds=[201996, 201997]] SymmetricSet [symIds=[1823117, 1823111]] 

> <GraphJson>
{
  "graphId": 52320,
  "gVertices": [
    {
      "lstAPs": [
        {
          "id": 2564397,
          "atomPositionNumber": 0,
          "atomPositionNumberInMol": 0,
          "apClass": {
            "rule": "Xlig",
            "subClass": 0,
            "bndTyp": "SINGLE"
          },
          "dirVec": {
            "x": -2.3339,
            "y": -0.0087,
            "z": 0.8172
          }
        },
        {
          "id": 2564398,
          "atomPositionNumber": 0,
          "atomPositionNumberInMol": 0,
          "apClass": {
            "rule": "Xlig",
            "subClass": 0,
            "bndTyp": "SINGLE"
          },
          "dirVec": {
            "x": 2.336,
            "y": -5.0E-4,
            "z": 0.829
          }
        },
        {
          "id": 2564399,
          "atomPositionNumber": 0,
          "atomPositionNumberInMol": 0,
          "apClass": {
            "rule": "scaff",
            "subClass": 0,
            "bndTyp": "SINGLE"
          },
          "dirVec": {
            "x": -0.0095,
            "y": 0.0046,
            "z": -1.7113
          }
        }
      ],
      "lstSymAPs": [
        {
          "symIds": [
            0,
            1
          ]
        }
      ],
      "mol": {
        "atoms": [
          {
            "elSymbol": "Pt",
            "p3d": {
              "x": -0.0098,
              "y": 0.0049,
              "z": 0.6289
            }
          },
          {
            "elSymbol": "C",
            "p3d": {
              "x": -6.0E-4,
              "y": 0.0016,
              "z": 2.5609
            }
          },
          {
            "elSymbol": "O",
            "p3d": {
              "x": 0.0025,
              "y": -0.0041,
              "z": 3.6974
            }
          },
          {
            "elSymbol": "Du",
            "p3d": {
              "x": -0.007,
              "y": 1.0013,
              "z": 0.6372
            }
          },
          {
            "elSymbol": "Du",
            "p3d": {
              "x": -0.0014,
              "y": 0.9902,
              "z": 2.5698
            }
          }
        ],
        "bonds": [
          {
            "atomIds": [
              1,
              2
            ],
            "bo": "TRIPLE"
          },
          {
            "atomIds": [
              0,
              1
            ],
            "bo": "SINGLE"
          },
          {
            "atomIds": [
              3,
              0
            ],
            "bo": "SINGLE"
          },
          {
            "atomIds": [
              4,
              1
            ],
            "bo": "SINGLE"
          }
        ]
      },
      "vertexId": 201988,
      "buildingBlockId": 0,
      "buildingBlockType": "SCAFFOLD",
      "isRCV": false,
      "properties": {
        "ATTACHMENT_POINTS": "1#Xlig:0:SINGLE:-2.3339%-0.0087%0.8172,Xlig:0:SINGLE:2.3360%-0.0005%0.8290,scaff:0:SINGLE:-0.0095%0.0046%-1.7113 "
      },
      "uniquefyingPropertyKeys": [],
      "allowedMutationTypes": [
        "DELETE",
        "EXTEND",
        "CHANGEBRANCH",
        "CHANGELINK",
        "ADDLINK",
        "DELETELINK",
        "DELETECHAIN"
      ],
      "vertexType": "MolecularFragment"
    },
    {
      "lstAPs": [
        {
          "id": 2564400,
          "atomPositionNumber": 0,
          "atomPositionNumberInMol": 5,
          "apClass": {
            "rule": "LPhospholeSubR",
            "subClass": 0,
            "bndTyp": "SINGLE"
          },
          "dirVec": {
            "x": -0.957928699128247,
            "y": -1.2389867054478398,
            "z": -2.7146353932890195
          }
        },
        {
          "id": 2564401,
          "atomPositionNumber": 0,
          "atomPositionNumberInMol": 5,
          "apClass": {
            "rule": "MPhosphole",
            "subClass": 1,
            "bndTyp": "SINGLE"
          },
          "dirVec": {
            "x": -0.009809425383735727,
            "y": 0.004909425383735812,
            "z": 0.7024242767279409
          }
        },
        {
          "id": 2564402,
          "atomPositionNumber": 1,
          "atomPositionNumberInMol": 6,
          "apClass": {
            "rule": "LPhospholeSubAlpha",
            "subClass": 0,
            "bndTyp": "SINGLE"
          },
          "dirVec": {
            "x": 2.5931089868169965,
            "y": -1.0815202663168948,
            "z": -2.460516221355717
          }
        },
        {
          "id": 2564403,
          "atomPositionNumber": 2,
          "atomPositionNumberInMol": 7,
          "apClass": {
            "rule": "LPhospholeSubBeta",
            "subClass": 0,
            "bndTyp": "SINGLE"
          },
          "dirVec": {
            "x": 3.0768132024617056,
            "y": 1.7083038994768367,
            "z": -3.8099260796718815
          }
        },
        {
          "id": 2564404,
          "atomPositionNumber": 3,
          "atomPositionNumberInMol": 8,
          "apClass": {
            "rule": "LPhospholeSubBeta",
            "subClass": 0,
            "bndTyp": "SINGLE"
          },
          "dirVec": {
            "x": 0.635419563843959,
            "y": 3.49095505570571,
            "z": -3.7392781744469774
          }
        },
        {
          "id": 2564405,
          "atomPositionNumber": 4,
          "atomPositionNumberInMol": 9,
          "apClass": {
            "rule": "LPhospholeSubAlpha",
            "subClass": 0,
            "bndTyp": "SINGLE"
          },
          "dirVec": {
            "x": -1.8432285744872703,
            "y": 2.170253200783081,
            "z": -2.364409505536723
          }
        }
      ],
      "lstSymAPs": [
        {
          "symIds": [
            2,
            5
          ]
        },
        {
          "symIds": [
            3,
            4
          ]
        }
      ],
      "mol": {
        "atoms": [
          {
            "elSymbol": "P",
            "p3d": {
              "x": -0.00949057461626427,
              "y": 0.004590574616264188,
              "z": -1.7848242767279412
            }
          },
          {
            "elSymbol": "C",
            "p3d": {
              "x": 1.6237935144381006,
              "y": 0.06110197376388202,
              "z": -2.565184370664216
            }
          },
          {
            "elSymbol": "C",
            "p3d": {
              "x": 1.7807489251800075,
              "y": 1.251602683219663,
              "z": -3.1438579313390767
            }
          },
          {
            "elSymbol": "C",
            "p3d": {
              "x": 0.5800947529651779,
              "y": 2.13213259884702,
              "z": -3.129588158096259
            }
          },
          {
            "elSymbol": "C",
            "p3d": {
              "x": -0.48208517386874467,
              "y": 1.5859958497483213,
              "z": -2.537539169992243
            }
          }
        ],
        "bonds": [
          {
            "atomIds": [
              1,
              0
            ],
            "bo": "SINGLE"
          },
          {
            "atomIds": [
              2,
              1
            ],
            "bo": "DOUBLE"
          },
          {
            "atomIds": [
              3,
              2
            ],
            "bo": "SINGLE"
          },
          {
            "atomIds": [
              4,
              0
            ],
            "bo": "SINGLE"
          },
          {
            "atomIds": [
              3,
              4
            ],
            "bo": "DOUBLE"
          }
        ]
      },
      "vertexId": 201989,
      "buildingBlockId": 48,
      "buildingBlockType": "FRAGMENT",
      "isRCV": false,
      "properties": {
        "ATTACHMENT_POINTS": "1#LPhospholeSubR:0:SINGLE:-0.9579%-1.2390%-2.7146,MPhosphole:1:SINGLE:-0.0098%0.0049%0.7024 2#LPhospholeSubAlpha:0:SINGLE:2.5931%-1.0815%-2.4605 3#LPhospholeSubBeta:0:SINGLE:3.0768%1.7083%-3.8099 4#LPhospholeSubBeta:0:SINGLE:0.6354%3.4910%-3.7393 5#LPhospholeSubAlpha:0:SINGLE:-1.8432%2.1703%-2.3644 "
      },
      "uniquefyingPropertyKeys": [],
      "allowedMutationTypes": [
        "DELETE",
        "EXTEND",
        "CHANGEBRANCH",
        "CHANGELINK",
        "ADDLINK",
        "DELETELINK",
        "DELETECHAIN"
      ],
      "vertexType": "MolecularFragment"
    },
    {
      "lstAPs": [
        {
          "id": 2564406,
          "atomPositionNumber": 0,
          "atomPositionNumberInMol": 10,
          "apClass": {
            "rule": "ATplus",
            "subClass": 0,
            "bndTyp": "ANY"
          },
          "dirVec": {
            "x": -1.8432285744872703,
            "y": 2.170253200783081,
            "z": -2.364409505536723
          }
        }
      ],
      "lstSymAPs": [],
      "mol": {
        "atoms": [
          {
            "elSymbol": "ATP",
            "p3d": {
              "x": -1.8623882938320793,
              "y": 2.1784773209352126,
              "z": -2.361972498694004
            }
          }
        ],
        "bonds": []
      },
      "vertexId": 201990,
      "buildingBlockId": 77,
      "buildingBlockType": "FRAGMENT",
      "isRCV": true,
      "properties": {
        "ATTACHMENT_POINTS": "1#ATplus:0:ANY:-1.8432%2.1703%-2.3644 "
      },
      "uniquefyingPropertyKeys": [],
      "allowedMutationTypes": [
        "DELETE",
        "EXTEND",
        "CHANGEBRANCH",
        "CHANGELINK",
        "ADDLINK",
        "DELETELINK",
        "DELETECHAIN"
      ],
      "vertexType": "MolecularFragment"
    },
    {
      "lstAPs": [
        {
          "id": 2564407,
          "atomPositionNumber": 0,
          "atomPositionNumberInMol": 11,
          "apClass": {
            "rule": "ATplus",
            "subClass": 0,
            "bndTyp": "ANY"
          },
          "dirVec": {
            "x": 2.5931089868169965,
            "y": -1.0815202663168948,
            "z": -2.460516221355717
          }
        }
      ],
      "lstSymAPs": [],
      "mol": {
        "atoms": [
          {
            "elSymbol": "ATP",
            "p3d": {
              "x": 2.606655933348593,
              "y": -1.0974893113112951,
              "z": -2.459053401600283
            }
          }
        ],
        "bonds": []
      },
      "vertexId": 201991,
      "buildingBlockId": 77,
      "buildingBlockType": "FRAGMENT",
      "isRCV": true,
      "properties": {
        "ATTACHMENT_POINTS": "1#ATplus:0:ANY:2.5931%-1.0815%-2.4605 "
      },
      "uniquefyingPropertyKeys": [],
      "allowedMutationTypes": [
        "DELETE",
        "EXTEND",
        "CHANGEBRANCH",
        "CHANGELINK",
        "ADDLINK",
        "DELETELINK",
        "DELETECHAIN"
      ],
      "vertexType": "MolecularFragment"
    },
    {
      "lstAPs": [
        {
          "id": 2564408,
          "atomPositionNumber": 1,
          "atomPositionNumberInMol": 25,
          "apClass": {
            "rule": "Xlig",
            "subClass": 1,
            "bndTyp": "SINGLE"
          },
          "dirVec": {
            "x": 5.983,
            "y": 5.659,
            "z": 10.7602
          }
        },
        {
          "id": 2564409,
          "atomPositionNumber": 0,
          "atomPositionNumberInMol": 24,
          "apClass": {
            "rule": "bridge",
            "subClass": 1,
            "bndTyp": "SINGLE"
          },
          "dirVec": {
            "x": 3.1219,
            "y": 7.0322,
            "z": 12.57
          }
        }
      ],
      "lstSymAPs": [],
      "mol": {
        "atoms": [
          {
            "elSymbol": "S",
            "p3d": {
              "x": 3.289,
              "y": 7.1626,
              "z": 10.7898
            }
          },
          {
            "elSymbol": "O",
            "p3d": {
              "x": 4.7494,
              "y": 7.4238,
              "z": 10.5812
            }
          },
          {
            "elSymbol": "O",
            "p3d": {
              "x": 2.8666,
              "y": 5.9079,
              "z": 10.2063
            }
          },
          {
            "elSymbol": "O",
            "p3d": {
              "x": 2.5225,
              "y": 8.319,
              "z": 10.3914
            }
          }
        ],
        "bonds": [
          {
            "atomIds": [
              0,
              1
            ],
            "bo": "SINGLE"
          },
          {
            "atomIds": [
              2,
              0
            ],
            "bo": "DOUBLE"
          },
          {
            "atomIds": [
              3,
              0
            ],
            "bo": "DOUBLE"
          }
        ]
      },
      "vertexId": 201992,
      "buildingBlockId": 76,
      "buildingBlockType": "FRAGMENT",
      "isRCV": false,
      "properties": {
        "ATTACHMENT_POINTS": "1#bridge:1:SINGLE:3.1219%7.0322%12.5700 2#Xlig:1:SINGLE:5.9830%5.6590%10.7602 "
      },
      "uniquefyingPropertyKeys": [],
      "allowedMutationTypes": [
        "DELETE",
        "EXTEND",
        "CHANGEBRANCH",
        "CHANGELINK",
        "ADDLINK",
        "DELETELINK",
        "DELETECHAIN"
      ],
      "vertexType": "MolecularFragment"
    },
    {
      "lstAPs": [
        {
          "id": 2564410,
          "atomPositionNumber": 1,
          "atomPositionNumberInMol": 36,
          "apClass": {
            "rule": "Xlig",
            "subClass": 1,
            "bndTyp": "SINGLE"
          },
          "dirVec": {
            "x": 5.983,
            "y": 5.659,
            "z": 10.7602
          }
        },
        {
          "id": 2564411,
          "atomPositionNumber": 0,
          "atomPositionNumberInMol": 35,
          "apClass": {
            "rule": "bridge",
            "subClass": 1,
            "bndTyp": "SINGLE"
          },
          "dirVec": {
            "x": 3.1219,
            "y": 7.0322,
            "z": 12.57
          }
        }
      ],
      "lstSymAPs": [],
      "mol": {
        "atoms": [
          {
            "elSymbol": "S",
            "p3d": {
              "x": 3.289,
              "y": 7.1626,
              "z": 10.7898
            }
          },
          {
            "elSymbol": "O",
            "p3d": {
              "x": 4.7494,
              "y": 7.4238,
              "z": 10.5812
            }
          },
          {
            "elSymbol": "O",
            "p3d": {
              "x": 2.8666,
              "y": 5.9079,
              "z": 10.2063
            }
          },
          {
            "elSymbol": "O",
            "p3d": {
              "x": 2.5225,
              "y": 8.319,
              "z": 10.3914
            }
          }
        ],
        "bonds": [
          {
            "atomIds": [
              0,
              1
            ],
            "bo": "SINGLE"
          },
          {
            "atomIds": [
              2,
              0
            ],
            "bo": "DOUBLE"
          },
          {
            "atomIds": [
              3,
              0
            ],
            "bo": "DOUBLE"
          }
        ]
      },
      "vertexId": 201993,
      "buildingBlockId": 76,
      "buildingBlockType": "FRAGMENT",
      "isRCV": false,
      "properties": {
        "ATTACHMENT_POINTS": "1#bridge:1:SINGLE:3.1219%7.0322%12.5700 2#Xlig:1:SINGLE:5.9830%5.6590%10.7602 "
      },
      "uniquefyingPropertyKeys": [],
      "allowedMutationTypes": [
        "DELETE",
        "EXTEND",
        "CHANGEBRANCH",
        "CHANGELINK",
        "ADDLINK",
        "DELETELINK",
        "DELETECHAIN"
      ],
      "vertexType": "MolecularFragment"
    },
    {
      "lstAPs": [
        {
          "id": 2564412,
          "atomPositionNumber": 1,
          "atomPositionNumberInMol": 29,
          "apClass": {
            "rule": "bridge",
            "subClass": 0,
            "bndTyp": "SINGLE"
          },
          "dirVec": {
            "x": 0.4112,
            "y": -1.2101,
            "z": -0.19930000000000003
          }
        },
        {
          "id": 2564413,
          "atomPositionNumber": 0,
          "atomPositionNumberInMol": 28,
          "apClass": {
            "rule": "bridge",
            "subClass": 0,
            "bndTyp": "SINGLE"
          },
          "dirVec": {
            "x": 0.41179999999999994,
            "y": 1.21,
            "z": -0.19930000000000003
          }
        }
      ],
      "lstSymAPs": [
        {
          "symIds": [
            0,
            1
          ]
        }
      ],
      "mol": {
        "atoms": [
          {
            "elSymbol": "C",
            "p3d": {
              "x": -1.0414,
              "y": 0.7696,
              "z": 0.0732
            }
          },
          {
            "elSymbol": "C",
            "p3d": {
              "x": -1.0417,
              "y": -0.7693,
              "z": 0.0732
            }
          },
          {
            "elSymbol": "H",
            "p3d": {
              "x": -1.6983,
              "y": 1.1431,
              "z": -0.7123
            }
          },
          {
            "elSymbol": "H",
            "p3d": {
              "x": -1.369,
              "y": 1.143,
              "z": 1.0434
            }
          },
          {
            "elSymbol": "H",
            "p3d": {
              "x": -1.3695,
              "y": -1.1425,
              "z": 1.0434
            }
          },
          {
            "elSymbol": "H",
            "p3d": {
              "x": -1.6988,
              "y": -1.1424,
              "z": -0.7123
            }
          }
        ],
        "bonds": [
          {
            "atomIds": [
              0,
              1
            ],
            "bo": "SINGLE"
          },
          {
            "atomIds": [
              0,
              2
            ],
            "bo": "SINGLE"
          },
          {
            "atomIds": [
              0,
              3
            ],
            "bo": "SINGLE"
          },
          {
            "atomIds": [
              1,
              4
            ],
            "bo": "SINGLE"
          },
          {
            "atomIds": [
              1,
              5
            ],
            "bo": "SINGLE"
          }
        ]
      },
      "vertexId": 201994,
      "buildingBlockId": 65,
      "buildingBlockType": "FRAGMENT",
      "isRCV": false,
      "properties": {
        "ATTACHMENT_POINTS": "1#bridge:0:SINGLE:0.4118%1.2100%-0.1993 2#bridge:0:SINGLE:0.4112%-1.2101%-0.1993 "
      },
      "uniquefyingPropertyKeys": [],
      "allowedMutationTypes": [
        "DELETE",
        "EXTEND",
        "CHANGEBRANCH",
        "CHANGELINK",
        "ADDLINK",
        "DELETELINK",
        "DELETECHAIN"
      ],
      "vertexType": "MolecularFragment"
    },
    {
      "lstAPs": [
        {
          "id": 2564414,
          "atomPositionNumber": 1,
          "atomPositionNumberInMol": 40,
          "apClass": {
            "rule": "bridge",
            "subClass": 0,
            "bndTyp": "SINGLE"
          },
          "dirVec": {
            "x": 0.4112,
            "y": -1.2101,
            "z": -0.19930000000000003
          }
        },
        {
          "id": 2564415,
          "atomPositionNumber": 0,
          "atomPositionNumberInMol": 39,
          "apClass": {
            "rule": "bridge",
            "subClass": 0,
            "bndTyp": "SINGLE"
          },
          "dirVec": {
            "x": 0.41179999999999994,
            "y": 1.21,
            "z": -0.19930000000000003
          }
        }
      ],
      "lstSymAPs": [
        {
          "symIds": [
            0,
            1
          ]
        }
      ],
      "mol": {
        "atoms": [
          {
            "elSymbol": "C",
            "p3d": {
              "x": -1.0414,
              "y": 0.7696,
              "z": 0.0732
            }
          },
          {
            "elSymbol": "C",
            "p3d": {
              "x": -1.0417,
              "y": -0.7693,
              "z": 0.0732
            }
          },
          {
            "elSymbol": "H",
            "p3d": {
              "x": -1.6983,
              "y": 1.1431,
              "z": -0.7123
            }
          },
          {
            "elSymbol": "H",
            "p3d": {
              "x": -1.369,
              "y": 1.143,
              "z": 1.0434
            }
          },
          {
            "elSymbol": "H",
            "p3d": {
              "x": -1.3695,
              "y": -1.1425,
              "z": 1.0434
            }
          },
          {
            "elSymbol": "H",
            "p3d": {
              "x": -1.6988,
              "y": -1.1424,
              "z": -0.7123
            }
          }
        ],
        "bonds": [
          {
            "atomIds": [
              0,
              1
            ],
            "bo": "SINGLE"
          },
          {
            "atomIds": [
              0,
              2
            ],
            "bo": "SINGLE"
          },
          {
            "atomIds": [
              0,
              3
            ],
            "bo": "SINGLE"
          },
          {
            "atomIds": [
              1,
              4
            ],
            "bo": "SINGLE"
          },
          {
            "atomIds": [
              1,
              5
            ],
            "bo": "SINGLE"
          }
        ]
      },
      "vertexId": 201995,
      "buildingBlockId": 65,
      "buildingBlockType": "FRAGMENT",
      "isRCV": false,
      "properties": {
        "ATTACHMENT_POINTS": "1#bridge:0:SINGLE:0.4118%1.2100%-0.1993 2#bridge:0:SINGLE:0.4112%-1.2101%-0.1993 "
      },
      "uniquefyingPropertyKeys": [],
      "allowedMutationTypes": [
        "DELETE",
        "EXTEND",
        "CHANGEBRANCH",
        "CHANGELINK",
        "ADDLINK",
        "DELETELINK",
        "DELETECHAIN"
      ],
      "vertexType": "MolecularFragment"
    },
    {
      "lstAPs": [
        {
          "id": 2564416,
          "atomPositionNumber": 0,
          "atomPositionNumberInMol": 34,
          "apClass": {
            "rule": "ATminus",
            "subClass": 0,
            "bndTyp": "ANY"
          },
          "dirVec": {
            "x": 0.0109,
            "y": -0.0071,
            "z": 0.0026
          }
        }
      ],
      "lstSymAPs": [],
      "mol": {
        "atoms": [
          {
            "elSymbol": "ATM",
            "p3d": {
              "x": -0.0096,
              "y": 0.0045,
              "z": -0.0011
            }
          }
        ],
        "bonds": []
      },
      "vertexId": 201996,
      "buildingBlockId": 78,
      "buildingBlockType": "FRAGMENT",
      "isRCV": true,
      "properties": {
        "ATTACHMENT_POINTS": "1#ATminus:0:ANY:0.0109%-0.0071%0.0026 "
      },
      "uniquefyingPropertyKeys": [],
      "allowedMutationTypes": [
        "DELETE",
        "EXTEND",
        "CHANGEBRANCH",
        "CHANGELINK",
        "ADDLINK",
        "DELETELINK",
        "DELETECHAIN"
      ],
      "vertexType": "MolecularFragment"
    },
    {
      "lstAPs": [
        {
          "id": 2564417,
          "atomPositionNumber": 0,
          "atomPositionNumberInMol": 45,
          "apClass": {
            "rule": "ATminus",
            "subClass": 0,
            "bndTyp": "ANY"
          },
          "dirVec": {
            "x": 0.0109,
            "y": -0.0071,
            "z": 0.0026
          }
        }
      ],
      "lstSymAPs": [],
      "mol": {
        "atoms": [
          {
            "elSymbol": "ATM",
            "p3d": {
              "x": -0.0096,
              "y": 0.0045,
              "z": -0.0011
            }
          }
        ],
        "bonds": []
      },
      "vertexId": 201997,
      "buildingBlockId": 78,
      "buildingBlockType": "FRAGMENT",
      "isRCV": true,
      "properties": {
        "ATTACHMENT_POINTS": "1#ATminus:0:ANY:0.0109%-0.0071%0.0026 "
      },
      "uniquefyingPropertyKeys": [],
      "allowedMutationTypes": [
        "DELETE",
        "EXTEND",
        "CHANGEBRANCH",
        "CHANGELINK",
        "ADDLINK",
        "DELETELINK",
        "DELETECHAIN"
      ],
      "vertexType": "MolecularFragment"
    },
    {
      "lstAPs": [
        {
          "id": 2564498,
          "atomPositionNumber": 0,
          "atomPositionNumberInMol": 12,
          "apClass": {
            "rule": "SubRS",
            "subClass": 1,
            "bndTyp": "SINGLE"
          },
          "dirVec": {
            "x": 0.2865,
            "y": 0.3959,
            "z": -0.6387
          }
        }
      ],
      "lstSymAPs": [],
      "mol": {
        "atoms": [
          {
            "elSymbol": "C",
            "p3d": {
              "x": 0.3969,
              "y": -0.0496,
              "z": 0.8235
            }
          },
          {
            "elSymbol": "H",
            "p3d": {
              "x": -0.6146,
              "y": -0.163,
              "z": 1.2402
            }
          },
          {
            "elSymbol": "H",
            "p3d": {
              "x": 0.9335,
              "y": -0.9979,
              "z": 0.8998
            }
          },
          {
            "elSymbol": "H",
            "p3d": {
              "x": 0.9252,
              "y": 0.7237,
              "z": 1.3995
            }
          }
        ],
        "bonds": [
          {
            "atomIds": [
              0,
              1
            ],
            "bo": "SINGLE"
          },
          {
            "atomIds": [
              0,
              2
            ],
            "bo": "SINGLE"
          },
          {
            "atomIds": [
              0,
              3
            ],
            "bo": "SINGLE"
          }
        ]
      },
      "vertexId": 1823117,
      "buildingBlockId": 23,
      "buildingBlockType": "FRAGMENT",
      "isRCV": false,
      "properties": {
        "ATTACHMENT_POINTS": "1#SubRS:1:SINGLE:0.2865%0.3959%-0.6387 "
      },
      "uniquefyingPropertyKeys": [],
      "allowedMutationTypes": [
        "DELETE",
        "EXTEND",
        "CHANGEBRANCH",
        "CHANGELINK",
        "ADDLINK",
        "DELETELINK",
        "DELETECHAIN"
      ],
      "vertexType": "MolecularFragment"
    },
    {
      "lstAPs": [
        {
          "id": 2564499,
          "atomPositionNumber": 0,
          "atomPositionNumberInMol": 16,
          "apClass": {
            "rule": "SubRS",
            "subClass": 1,
            "bndTyp": "SINGLE"
          },
          "dirVec": {
            "x": 0.2865,
            "y": 0.3959,
            "z": -0.6387
          }
        }
      ],
      "lstSymAPs": [],
      "mol": {
        "atoms": [
          {
            "elSymbol": "C",
            "p3d": {
              "x": 0.3969,
              "y": -0.0496,
              "z": 0.8235
            }
          },
          {
            "elSymbol": "H",
            "p3d": {
              "x": -0.6146,
              "y": -0.163,
              "z": 1.2402
            }
          },
          {
            "elSymbol": "H",
            "p3d": {
              "x": 0.9335,
              "y": -0.9979,
              "z": 0.8998
            }
          },
          {
            "elSymbol": "H",
            "p3d": {
              "x": 0.9252,
              "y": 0.7237,
              "z": 1.3995
            }
          }
        ],
        "bonds": [
          {
            "atomIds": [
              0,
              1
            ],
            "bo": "SINGLE"
          },
          {
            "atomIds": [
              0,
              2
            ],
            "bo": "SINGLE"
          },
          {
            "atomIds": [
              0,
              3
            ],
            "bo": "SINGLE"
          }
        ]
      },
      "vertexId": 1823111,
      "buildingBlockId": 23,
      "buildingBlockType": "FRAGMENT",
      "isRCV": false,
      "properties": {
        "ATTACHMENT_POINTS": "1#SubRS:1:SINGLE:0.2865%0.3959%-0.6387 "
      },
      "uniquefyingPropertyKeys": [],
      "allowedMutationTypes": [
        "DELETE",
        "EXTEND",
        "CHANGEBRANCH",
        "CHANGELINK",
        "ADDLINK",
        "DELETELINK",
        "DELETECHAIN"
      ],
      "vertexType": "MolecularFragment"
    },
    {
      "lstAPs": [
        {
          "id": 2564500,
          "atomPositionNumber": 0,
          "atomPositionNumberInMol": 20,
          "apClass": {
            "rule": "SubRS",
            "subClass": 1,
            "bndTyp": "SINGLE"
          },
          "dirVec": {
            "x": 0.2865,
            "y": 0.3959,
            "z": -0.6387
          }
        }
      ],
      "lstSymAPs": [],
      "mol": {
        "atoms": [
          {
            "elSymbol": "C",
            "p3d": {
              "x": 0.3969,
              "y": -0.0496,
              "z": 0.8235
            }
          },
          {
            "elSymbol": "H",
            "p3d": {
              "x": -0.6146,
              "y": -0.163,
              "z": 1.2402
            }
          },
          {
            "elSymbol": "H",
            "p3d": {
              "x": 0.9335,
              "y": -0.9979,
              "z": 0.8998
            }
          },
          {
            "elSymbol": "H",
            "p3d": {
              "x": 0.9252,
              "y": 0.7237,
              "z": 1.3995
            }
          }
        ],
        "bonds": [
          {
            "atomIds": [
              0,
              1
            ],
            "bo": "SINGLE"
          },
          {
            "atomIds": [
              0,
              2
            ],
            "bo": "SINGLE"
          },
          {
            "atomIds": [
              0,
              3
            ],
            "bo": "SINGLE"
          }
        ]
      },
      "vertexId": 1823103,
      "buildingBlockId": 23,
      "buildingBlockType": "FRAGMENT",
      "isRCV": false,
      "properties": {
        "ATTACHMENT_POINTS": "1#SubRS:1:SINGLE:0.2865%0.3959%-0.6387 "
      },
      "uniquefyingPropertyKeys": [],
      "allowedMutationTypes": [
        "DELETE",
        "EXTEND",
        "CHANGEBRANCH",
        "CHANGELINK",
        "ADDLINK",
        "DELETELINK",
        "DELETECHAIN"
      ],
      "vertexType": "MolecularFragment"
    }
  ],
  "gEdges": [
    {
      "srcAPID": 2564399,
      "trgAPID": 2564401,
      "bondType": "SINGLE"
    },
    {
      "srcAPID": 2564405,
      "trgAPID": 2564406,
      "bondType": "SINGLE"
    },
    {
      "srcAPID": 2564402,
      "trgAPID": 2564407,
      "bondType": "SINGLE"
    },
    {
      "srcAPID": 2564398,
      "trgAPID": 2564408,
      "bondType": "SINGLE"
    },
    {
      "srcAPID": 2564397,
      "trgAPID": 2564410,
      "bondType": "SINGLE"
    },
    {
      "srcAPID": 2564409,
      "trgAPID": 2564412,
      "bondType": "SINGLE"
    },
    {
      "srcAPID": 2564411,
      "trgAPID": 2564414,
      "bondType": "SINGLE"
    },
    {
      "srcAPID": 2564413,
      "trgAPID": 2564416,
      "bondType": "SINGLE"
    },
    {
      "srcAPID": 2564415,
      "trgAPID": 2564417,
      "bondType": "SINGLE"
    },
    {
      "srcAPID": 2564404,
      "trgAPID": 2564498,
      "bondType": "SINGLE"
    },
    {
      "srcAPID": 2564403,
      "trgAPID": 2564499,
      "bondType": "SINGLE"
    },
    {
      "srcAPID": 2564400,
      "trgAPID": 2564500,
      "bondType": "SINGLE"
    }
  ],
  "gRings": [
    {
      "vertices": [
        201990,
        201989,
        201988,
        201992,
        201994,
        201996
      ],
      "bndTyp": "SINGLE"
    },
    {
      "vertices": [
        201991,
        201989,
        201988,
        201993,
        201995,
        201997
      ],
      "bndTyp": "SINGLE"
    }
  ],
  "symVertices": [
    {
      "symIds": [
        201990,
        201991
      ]
    },
    {
      "symIds": [
        201992,
        201993
      ]
    },
    {
      "symIds": [
        201994,
        201995
      ]
    },
    {
      "symIds": [
        201996,
        201997
      ]
    },
    {
      "symIds": [
        1823117,
        1823111
      ]
    }
  ]
}

> <SMILES>
[Pt]12(C#O)[P]3(C(=C(C(=C3C(C([H])([H])S(O1)(=O)=O)([H])[H])C([H])([H])[H])C([H])([H])[H])C(C([H])([H])S(O2)(=O)=O)([H])[H])C([H])([H])[H]

$$$$
