M00003217
  CDK     05032208053D

 36 39  0  0  0  0  0  0  0  0999 V2000
   -2.9749   -0.0048   -1.3823 Pt  0  0  0  0  0  0  0  0  0  0  0  0
   -4.9187   -0.0180   -1.3036 C   0  0  0  0  0  0  0  0  0  0  0  0
   -6.0584   -0.0266   -1.2228 O   0  0  0  0  0  0  0  0  0  0  0  0
   -0.7074    0.0084   -1.3094 P   0  0  0  0  0  0  0  0  0  0  0  0
    0.2340    0.0289   -2.9168 C   0  0  0  0  0  0  0  0  0  0  0  0
   -0.0119   -0.8554   -3.5278 H   0  0  0  0  0  0  0  0  0  0  0  0
   -0.0218    0.9220   -3.5109 H   0  0  0  0  0  0  0  0  0  0  0  0
    1.3203    0.0334   -2.7558 H   0  0  0  0  0  0  0  0  0  0  0  0
   -2.8685   -2.3461   -1.3426 S   0  0  0  0  0  0  0  0  0  0  0  0
   -1.3327   -2.5337   -0.4841 C   0  0  0  0  0  0  0  0  0  0  0  0
   -1.1170   -3.7747    0.1387 C   0  0  0  0  0  0  0  0  0  0  0  0
    0.0793   -4.0116    0.8087 C   0  0  0  0  0  0  0  0  0  0  0  0
    1.0809   -3.0204    0.8738 C   0  0  0  0  0  0  0  0  0  0  0  0
    0.8677   -1.7848    0.2497 C   0  0  0  0  0  0  0  0  0  0  0  0
   -0.3346   -1.5579   -0.4234 C   0  0  0  0  0  0  0  0  0  0  0  0
   -1.8865   -4.5489    0.1025 H   0  0  0  0  0  0  0  0  0  0  0  0
    1.6419   -1.0188    0.3065 H   0  0  0  0  0  0  0  0  0  0  0  0
    2.3510   -3.3004    1.6079 C   0  0  0  0  0  0  0  0  0  0  0  0
    2.8733   -4.1714    1.1855 H   0  0  0  0  0  0  0  0  0  0  0  0
    3.0558   -2.4601    1.5823 H   0  0  0  0  0  0  0  0  0  0  0  0
    2.1565   -3.5223    2.6680 H   0  0  0  0  0  0  0  0  0  0  0  0
    0.2450   -4.9741    1.2938 H   0  0  0  0  0  0  0  0  0  0  0  0
   -2.8979    2.3364   -1.2935 S   0  0  0  0  0  0  0  0  0  0  0  0
   -1.3630    2.5260   -0.4339 C   0  0  0  0  0  0  0  0  0  0  0  0
   -1.1616    3.7572    0.2127 C   0  0  0  0  0  0  0  0  0  0  0  0
    0.0333    3.9964    0.8843 C   0  0  0  0  0  0  0  0  0  0  0  0
    1.0479    3.0172    0.9273 C   0  0  0  0  0  0  0  0  0  0  0  0
    0.8485    1.7911    0.2803 C   0  0  0  0  0  0  0  0  0  0  0  0
   -0.3526    1.5619   -0.3941 C   0  0  0  0  0  0  0  0  0  0  0  0
   -1.9410    4.5221    0.1934 H   0  0  0  0  0  0  0  0  0  0  0  0
    1.6324    1.0339    0.3207 H   0  0  0  0  0  0  0  0  0  0  0  0
    0.1878    4.9512    1.3882 H   0  0  0  0  0  0  0  0  0  0  0  0
    2.3158    3.2982    1.6648 C   0  0  0  0  0  0  0  0  0  0  0  0
    2.1267    3.4280    2.7411 H   0  0  0  0  0  0  0  0  0  0  0  0
    3.0573    2.4957    1.5648 H   0  0  0  0  0  0  0  0  0  0  0  0
    2.7930    4.2219    1.3062 H   0  0  0  0  0  0  0  0  0  0  0  0
  2  3  3  0  0  0  0
  1  2  1  0  0  0  0
  1  4  1  0  0  0  0
  5  6  1  0  0  0  0
  5  7  1  0  0  0  0
  5  8  1  0  0  0  0
  4  5  1  0  0  0  0
  1  9  1  0  0  0  0
 10 11  1  0  0  0  0
 11 12  2  0  0  0  0
 12 13  1  0  0  0  0
 13 14  2  0  0  0  0
 14 15  1  0  0  0  0
 10 15  2  0  0  0  0
 11 16  1  0  0  0  0
 14 17  1  0  0  0  0
  9 10  1  0  0  0  0
 18 19  1  0  0  0  0
 18 20  1  0  0  0  0
 18 21  1  0  0  0  0
 13 18  1  0  0  0  0
 12 22  1  0  0  0  0
  1 23  1  0  0  0  0
 24 25  1  0  0  0  0
 25 26  2  0  0  0  0
 26 27  1  0  0  0  0
 27 28  2  0  0  0  0
 28 29  1  0  0  0  0
 24 29  2  0  0  0  0
 25 30  1  0  0  0  0
 28 31  1  0  0  0  0
 23 24  1  0  0  0  0
 26 32  1  0  0  0  0
 33 34  1  0  0  0  0
 33 35  1  0  0  0  0
 33 36  1  0  0  0  0
 27 33  1  0  0  0  0
  4 15  1  0  0  0  0
  4 29  1  0  0  0  0
M  END
> <PM6_ENERGY>
31.015

> <UID>
IBEWECXSOHIZHA-DXGUFJONNA-L

> <FITNESS>
1.14259

> <GCODE>
13665

> <GraphENC>
13665 144282_1_0,144283_39_1,144284_78_1,144285_78_1,144286_74_1,144287_74_1,144288_69_1,144289_69_1,144290_24_1,144291_79_1,144292_79_1,144293_1_2,144294_24_1,144295_1_2,494175_24_1, 144282_2_144283_3_SINGLE_scaff:0_MPhosphine:1,144283_0_144284_0_SINGLE_LPhosphineSubMSym:0_ATplus:0,144283_1_144285_0_SINGLE_LPhosphineSubMSym:0_ATplus:0,144282_1_144286_0_SINGLE_Xlig:0_Xlig:1,144282_0_144287_0_SINGLE_Xlig:0_Xlig:1,144287_1_144288_0_SINGLE_bridge:1_bridge:0,144286_1_144289_0_SINGLE_bridge:1_bridge:0,144289_3_144290_0_SINGLE_SubBridgeArS:0_SubRS:1,144288_1_144291_0_SINGLE_bridge:0_ATminus:0,144289_1_144292_0_SINGLE_bridge:0_ATminus:0,144288_2_144293_0_SINGLE_SubBridgeArS:0_hyd:1,144288_3_144294_0_SINGLE_SubBridgeArS:0_SubRS:1,144289_2_144295_0_SINGLE_SubBridgeArS:0_hyd:1,144283_2_494175_0_SINGLE_LPhosphineSubM:0_SubRS:1, DENOPTIMRing [vertices=[144284_78_1, 144283_39_1, 144282_1_0, 144287_74_1, 144288_69_1, 144291_79_1]] DENOPTIMRing [vertices=[144285_78_1, 144283_39_1, 144282_1_0, 144286_74_1, 144289_69_1, 144292_79_1]] SymmetricSet [symIds=[144284, 144285]] SymmetricSet [symIds=[144286, 144287]] SymmetricSet [symIds=[144288, 144289]] SymmetricSet [symIds=[144291, 144292]] SymmetricSet [symIds=[144293, 144295]] SymmetricSet [symIds=[144290, 144294]] 

> <GraphJson>
{
  "graphId": 13665,
  "gVertices": [
    {
      "lstAPs": [
        {
          "id": 436455,
          "atomPositionNumber": 0,
          "atomPositionNumberInMol": 0,
          "apClass": {
            "rule": "Xlig",
            "subClass": 0,
            "bndTyp": "SINGLE"
          },
          "dirVec": {
            "x": -2.3339,
            "y": -0.0087,
            "z": 0.8172
          }
        },
        {
          "id": 436456,
          "atomPositionNumber": 0,
          "atomPositionNumberInMol": 0,
          "apClass": {
            "rule": "Xlig",
            "subClass": 0,
            "bndTyp": "SINGLE"
          },
          "dirVec": {
            "x": 2.336,
            "y": -5.0E-4,
            "z": 0.829
          }
        },
        {
          "id": 436457,
          "atomPositionNumber": 0,
          "atomPositionNumberInMol": 0,
          "apClass": {
            "rule": "scaff",
            "subClass": 0,
            "bndTyp": "SINGLE"
          },
          "dirVec": {
            "x": -0.0095,
            "y": 0.0046,
            "z": -1.7113
          }
        }
      ],
      "lstSymAPs": [
        {
          "symIds": [
            0,
            1
          ]
        }
      ],
      "mol": {
        "atoms": [
          {
            "elSymbol": "Pt",
            "p3d": {
              "x": -0.0098,
              "y": 0.0049,
              "z": 0.6289
            }
          },
          {
            "elSymbol": "C",
            "p3d": {
              "x": -6.0E-4,
              "y": 0.0016,
              "z": 2.5609
            }
          },
          {
            "elSymbol": "O",
            "p3d": {
              "x": 0.0025,
              "y": -0.0041,
              "z": 3.6974
            }
          },
          {
            "elSymbol": "Du",
            "p3d": {
              "x": -0.007,
              "y": 1.0013,
              "z": 0.6372
            }
          },
          {
            "elSymbol": "Du",
            "p3d": {
              "x": -0.0014,
              "y": 0.9902,
              "z": 2.5698
            }
          }
        ],
        "bonds": [
          {
            "atomIds": [
              1,
              2
            ],
            "bo": "TRIPLE"
          },
          {
            "atomIds": [
              0,
              1
            ],
            "bo": "SINGLE"
          },
          {
            "atomIds": [
              3,
              0
            ],
            "bo": "SINGLE"
          },
          {
            "atomIds": [
              4,
              1
            ],
            "bo": "SINGLE"
          }
        ]
      },
      "vertexId": 144282,
      "buildingBlockId": 0,
      "buildingBlockType": "SCAFFOLD",
      "isRCV": false,
      "properties": {
        "ATTACHMENT_POINTS": "1#Xlig:0:SINGLE:-2.3339%-0.0087%0.8172,Xlig:0:SINGLE:2.3360%-0.0005%0.8290,scaff:0:SINGLE:-0.0095%0.0046%-1.7113 "
      },
      "uniquefyingPropertyKeys": [],
      "allowedMutationTypes": [
        "DELETE",
        "EXTEND",
        "CHANGEBRANCH",
        "CHANGELINK",
        "ADDLINK",
        "DELETELINK",
        "DELETECHAIN"
      ],
      "vertexType": "MolecularFragment"
    },
    {
      "lstAPs": [
        {
          "id": 436458,
          "atomPositionNumber": 0,
          "atomPositionNumberInMol": 5,
          "apClass": {
            "rule": "LPhosphineSubMSym",
            "subClass": 0,
            "bndTyp": "SINGLE"
          },
          "dirVec": {
            "x": 1.6990896281071761,
            "y": -0.022388909837196012,
            "z": -2.396120418214485
          }
        },
        {
          "id": 436459,
          "atomPositionNumber": 0,
          "atomPositionNumberInMol": 5,
          "apClass": {
            "rule": "LPhosphineSubMSym",
            "subClass": 0,
            "bndTyp": "SINGLE"
          },
          "dirVec": {
            "x": -0.7974463454160869,
            "y": -1.5166607579844005,
            "z": -2.4042461021237207
          }
        },
        {
          "id": 436460,
          "atomPositionNumber": 0,
          "atomPositionNumberInMol": 5,
          "apClass": {
            "rule": "LPhosphineSubM",
            "subClass": 0,
            "bndTyp": "SINGLE"
          },
          "dirVec": {
            "x": -0.7742387081003741,
            "y": 1.5297606753905255,
            "z": -2.410065538873874
          }
        },
        {
          "id": 436461,
          "atomPositionNumber": 0,
          "atomPositionNumberInMol": 5,
          "apClass": {
            "rule": "MPhosphine",
            "subClass": 1,
            "bndTyp": "SINGLE"
          },
          "dirVec": {
            "x": -0.009797986516488381,
            "y": 0.004897986516489378,
            "z": 0.6131934862948514
          }
        }
      ],
      "lstSymAPs": [
        {
          "symIds": [
            0,
            1
          ]
        }
      ],
      "mol": {
        "atoms": [
          {
            "elSymbol": "P",
            "p3d": {
              "x": -0.009502013483511618,
              "y": 0.004602013483510622,
              "z": -1.6955934862948516
            }
          }
        ],
        "bonds": []
      },
      "vertexId": 144283,
      "buildingBlockId": 38,
      "buildingBlockType": "FRAGMENT",
      "isRCV": false,
      "properties": {
        "ATTACHMENT_POINTS": "1#LPhosphineSubMSym:0:SINGLE:1.6991%-0.0224%-2.3961,LPhosphineSubMSym:0:SINGLE:-0.7974%-1.5167%-2.4042,LPhosphineSubM:0:SINGLE:-0.7742%1.5298%-2.4101,MPhosphine:1:SINGLE:-0.0098%0.0049%0.6132 "
      },
      "uniquefyingPropertyKeys": [],
      "allowedMutationTypes": [
        "DELETE",
        "EXTEND",
        "CHANGEBRANCH",
        "CHANGELINK",
        "ADDLINK",
        "DELETELINK",
        "DELETECHAIN"
      ],
      "vertexType": "MolecularFragment"
    },
    {
      "lstAPs": [
        {
          "id": 436462,
          "atomPositionNumber": 0,
          "atomPositionNumberInMol": 6,
          "apClass": {
            "rule": "ATplus",
            "subClass": 0,
            "bndTyp": "ANY"
          },
          "dirVec": {
            "x": 1.6990896281071761,
            "y": -0.022388909837196012,
            "z": -2.396120418214485
          }
        }
      ],
      "lstSymAPs": [],
      "mol": {
        "atoms": [
          {
            "elSymbol": "ATP",
            "p3d": {
              "x": 1.718510555115942,
              "y": -0.02269570564431036,
              "z": -2.4040830478337076
            }
          }
        ],
        "bonds": []
      },
      "vertexId": 144284,
      "buildingBlockId": 77,
      "buildingBlockType": "FRAGMENT",
      "isRCV": true,
      "properties": {
        "ATTACHMENT_POINTS": "1#ATplus:0:ANY:1.6991%-0.0224%-2.3961 "
      },
      "uniquefyingPropertyKeys": [],
      "allowedMutationTypes": [
        "DELETE",
        "EXTEND",
        "CHANGEBRANCH",
        "CHANGELINK",
        "ADDLINK",
        "DELETELINK",
        "DELETECHAIN"
      ],
      "vertexType": "MolecularFragment"
    },
    {
      "lstAPs": [
        {
          "id": 436463,
          "atomPositionNumber": 0,
          "atomPositionNumberInMol": 7,
          "apClass": {
            "rule": "ATplus",
            "subClass": 0,
            "bndTyp": "ANY"
          },
          "dirVec": {
            "x": -0.7974463454160869,
            "y": -1.5166607579844005,
            "z": -2.4042461021237207
          }
        }
      ],
      "lstSymAPs": [],
      "mol": {
        "atoms": [
          {
            "elSymbol": "ATP",
            "p3d": {
              "x": -0.8063679812732594,
              "y": -1.5338855185925786,
              "z": -2.4122699438234907
            }
          }
        ],
        "bonds": []
      },
      "vertexId": 144285,
      "buildingBlockId": 77,
      "buildingBlockType": "FRAGMENT",
      "isRCV": true,
      "properties": {
        "ATTACHMENT_POINTS": "1#ATplus:0:ANY:-0.7974%-1.5167%-2.4042 "
      },
      "uniquefyingPropertyKeys": [],
      "allowedMutationTypes": [
        "DELETE",
        "EXTEND",
        "CHANGEBRANCH",
        "CHANGELINK",
        "ADDLINK",
        "DELETELINK",
        "DELETECHAIN"
      ],
      "vertexType": "MolecularFragment"
    },
    {
      "lstAPs": [
        {
          "id": 436464,
          "atomPositionNumber": 0,
          "atomPositionNumberInMol": 12,
          "apClass": {
            "rule": "Xlig",
            "subClass": 1,
            "bndTyp": "SINGLE"
          },
          "dirVec": {
            "x": -0.102,
            "y": 0.0185,
            "z": -1.0265
          }
        },
        {
          "id": 436465,
          "atomPositionNumber": 0,
          "atomPositionNumberInMol": 12,
          "apClass": {
            "rule": "bridge",
            "subClass": 1,
            "bndTyp": "SINGLE"
          },
          "dirVec": {
            "x": -0.626,
            "y": 2.4866,
            "z": 0.7805
          }
        }
      ],
      "lstSymAPs": [],
      "mol": {
        "atoms": [
          {
            "elSymbol": "S",
            "p3d": {
              "x": -0.3267,
              "y": 2.3403,
              "z": -1.0022
            }
          }
        ],
        "bonds": []
      },
      "vertexId": 144286,
      "buildingBlockId": 73,
      "buildingBlockType": "FRAGMENT",
      "isRCV": false,
      "properties": {
        "ATTACHMENT_POINTS": "1#Xlig:1:SINGLE:-0.1020%0.0185%-1.0265,bridge:1:SINGLE:-0.6260%2.4866%0.7805 "
      },
      "uniquefyingPropertyKeys": [],
      "allowedMutationTypes": [
        "DELETE",
        "EXTEND",
        "CHANGEBRANCH",
        "CHANGELINK",
        "ADDLINK",
        "DELETELINK",
        "DELETECHAIN"
      ],
      "vertexType": "MolecularFragment"
    },
    {
      "lstAPs": [
        {
          "id": 436466,
          "atomPositionNumber": 0,
          "atomPositionNumberInMol": 27,
          "apClass": {
            "rule": "Xlig",
            "subClass": 1,
            "bndTyp": "SINGLE"
          },
          "dirVec": {
            "x": -0.102,
            "y": 0.0185,
            "z": -1.0265
          }
        },
        {
          "id": 436467,
          "atomPositionNumber": 0,
          "atomPositionNumberInMol": 27,
          "apClass": {
            "rule": "bridge",
            "subClass": 1,
            "bndTyp": "SINGLE"
          },
          "dirVec": {
            "x": -0.626,
            "y": 2.4866,
            "z": 0.7805
          }
        }
      ],
      "lstSymAPs": [],
      "mol": {
        "atoms": [
          {
            "elSymbol": "S",
            "p3d": {
              "x": -0.3267,
              "y": 2.3403,
              "z": -1.0022
            }
          }
        ],
        "bonds": []
      },
      "vertexId": 144287,
      "buildingBlockId": 73,
      "buildingBlockType": "FRAGMENT",
      "isRCV": false,
      "properties": {
        "ATTACHMENT_POINTS": "1#Xlig:1:SINGLE:-0.1020%0.0185%-1.0265,bridge:1:SINGLE:-0.6260%2.4866%0.7805 "
      },
      "uniquefyingPropertyKeys": [],
      "allowedMutationTypes": [
        "DELETE",
        "EXTEND",
        "CHANGEBRANCH",
        "CHANGELINK",
        "ADDLINK",
        "DELETELINK",
        "DELETECHAIN"
      ],
      "vertexType": "MolecularFragment"
    },
    {
      "lstAPs": [
        {
          "id": 436468,
          "atomPositionNumber": 0,
          "atomPositionNumberInMol": 28,
          "apClass": {
            "rule": "bridge",
            "subClass": 0,
            "bndTyp": "SINGLE"
          },
          "dirVec": {
            "x": 2.5022,
            "y": 1.4447,
            "z": 0.0013
          }
        },
        {
          "id": 436469,
          "atomPositionNumber": 5,
          "atomPositionNumberInMol": 33,
          "apClass": {
            "rule": "bridge",
            "subClass": 0,
            "bndTyp": "SINGLE"
          },
          "dirVec": {
            "x": 2.5022,
            "y": -1.4447,
            "z": -0.0015
          }
        },
        {
          "id": 436470,
          "atomPositionNumber": 2,
          "atomPositionNumberInMol": 30,
          "apClass": {
            "rule": "SubBridgeArS",
            "subClass": 0,
            "bndTyp": "SINGLE"
          },
          "dirVec": {
            "x": -2.5022,
            "y": 1.4447,
            "z": -0.0014
          }
        },
        {
          "id": 436471,
          "atomPositionNumber": 3,
          "atomPositionNumberInMol": 31,
          "apClass": {
            "rule": "SubBridgeArS",
            "subClass": 0,
            "bndTyp": "SINGLE"
          },
          "dirVec": {
            "x": -2.5022,
            "y": -1.4447,
            "z": 6.0E-4
          }
        }
      ],
      "lstSymAPs": [
        {
          "symIds": [
            0,
            1
          ]
        },
        {
          "symIds": [
            2,
            3
          ]
        }
      ],
      "mol": {
        "atoms": [
          {
            "elSymbol": "C",
            "p3d": {
              "x": 1.1971,
              "y": 0.6912,
              "z": 0.0015
            }
          },
          {
            "elSymbol": "C",
            "p3d": {
              "x": 0.0,
              "y": 1.3824,
              "z": -3.0E-4
            }
          },
          {
            "elSymbol": "C",
            "p3d": {
              "x": -1.1971,
              "y": 0.6912,
              "z": -1.0E-4
            }
          },
          {
            "elSymbol": "C",
            "p3d": {
              "x": -1.1971,
              "y": -0.6912,
              "z": 9.0E-4
            }
          },
          {
            "elSymbol": "C",
            "p3d": {
              "x": 0.0,
              "y": -1.3824,
              "z": 0.0017
            }
          },
          {
            "elSymbol": "C",
            "p3d": {
              "x": 1.1971,
              "y": -0.6912,
              "z": -0.0024
            }
          },
          {
            "elSymbol": "H",
            "p3d": {
              "x": 0.0,
              "y": 2.4624,
              "z": -0.0014
            }
          },
          {
            "elSymbol": "H",
            "p3d": {
              "x": 0.0,
              "y": -2.4624,
              "z": 0.0021
            }
          }
        ],
        "bonds": [
          {
            "atomIds": [
              0,
              1
            ],
            "bo": "SINGLE"
          },
          {
            "atomIds": [
              1,
              2
            ],
            "bo": "DOUBLE"
          },
          {
            "atomIds": [
              2,
              3
            ],
            "bo": "SINGLE"
          },
          {
            "atomIds": [
              3,
              4
            ],
            "bo": "DOUBLE"
          },
          {
            "atomIds": [
              4,
              5
            ],
            "bo": "SINGLE"
          },
          {
            "atomIds": [
              0,
              5
            ],
            "bo": "DOUBLE"
          },
          {
            "atomIds": [
              1,
              6
            ],
            "bo": "SINGLE"
          },
          {
            "atomIds": [
              4,
              7
            ],
            "bo": "SINGLE"
          }
        ]
      },
      "vertexId": 144288,
      "buildingBlockId": 68,
      "buildingBlockType": "FRAGMENT",
      "isRCV": false,
      "properties": {
        "ATTACHMENT_POINTS": "1#bridge:0:SINGLE:2.5022%1.4447%0.0013 3#SubBridgeArS:0:SINGLE:-2.5022%1.4447%-0.0014 4#SubBridgeArS:0:SINGLE:-2.5022%-1.4447%0.0006 6#bridge:0:SINGLE:2.5022%-1.4447%-0.0015 "
      },
      "uniquefyingPropertyKeys": [],
      "allowedMutationTypes": [
        "DELETE",
        "EXTEND",
        "CHANGEBRANCH",
        "CHANGELINK",
        "ADDLINK",
        "DELETELINK",
        "DELETECHAIN"
      ],
      "vertexType": "MolecularFragment"
    },
    {
      "lstAPs": [
        {
          "id": 436472,
          "atomPositionNumber": 0,
          "atomPositionNumberInMol": 13,
          "apClass": {
            "rule": "bridge",
            "subClass": 0,
            "bndTyp": "SINGLE"
          },
          "dirVec": {
            "x": 2.5022,
            "y": 1.4447,
            "z": 0.0013
          }
        },
        {
          "id": 436473,
          "atomPositionNumber": 5,
          "atomPositionNumberInMol": 18,
          "apClass": {
            "rule": "bridge",
            "subClass": 0,
            "bndTyp": "SINGLE"
          },
          "dirVec": {
            "x": 2.5022,
            "y": -1.4447,
            "z": -0.0015
          }
        },
        {
          "id": 436474,
          "atomPositionNumber": 2,
          "atomPositionNumberInMol": 15,
          "apClass": {
            "rule": "SubBridgeArS",
            "subClass": 0,
            "bndTyp": "SINGLE"
          },
          "dirVec": {
            "x": -2.5022,
            "y": 1.4447,
            "z": -0.0014
          }
        },
        {
          "id": 436475,
          "atomPositionNumber": 3,
          "atomPositionNumberInMol": 16,
          "apClass": {
            "rule": "SubBridgeArS",
            "subClass": 0,
            "bndTyp": "SINGLE"
          },
          "dirVec": {
            "x": -2.5022,
            "y": -1.4447,
            "z": 6.0E-4
          }
        }
      ],
      "lstSymAPs": [
        {
          "symIds": [
            0,
            1
          ]
        },
        {
          "symIds": [
            2,
            3
          ]
        }
      ],
      "mol": {
        "atoms": [
          {
            "elSymbol": "C",
            "p3d": {
              "x": 1.1971,
              "y": 0.6912,
              "z": 0.0015
            }
          },
          {
            "elSymbol": "C",
            "p3d": {
              "x": 0.0,
              "y": 1.3824,
              "z": -3.0E-4
            }
          },
          {
            "elSymbol": "C",
            "p3d": {
              "x": -1.1971,
              "y": 0.6912,
              "z": -1.0E-4
            }
          },
          {
            "elSymbol": "C",
            "p3d": {
              "x": -1.1971,
              "y": -0.6912,
              "z": 9.0E-4
            }
          },
          {
            "elSymbol": "C",
            "p3d": {
              "x": 0.0,
              "y": -1.3824,
              "z": 0.0017
            }
          },
          {
            "elSymbol": "C",
            "p3d": {
              "x": 1.1971,
              "y": -0.6912,
              "z": -0.0024
            }
          },
          {
            "elSymbol": "H",
            "p3d": {
              "x": 0.0,
              "y": 2.4624,
              "z": -0.0014
            }
          },
          {
            "elSymbol": "H",
            "p3d": {
              "x": 0.0,
              "y": -2.4624,
              "z": 0.0021
            }
          }
        ],
        "bonds": [
          {
            "atomIds": [
              0,
              1
            ],
            "bo": "SINGLE"
          },
          {
            "atomIds": [
              1,
              2
            ],
            "bo": "DOUBLE"
          },
          {
            "atomIds": [
              2,
              3
            ],
            "bo": "SINGLE"
          },
          {
            "atomIds": [
              3,
              4
            ],
            "bo": "DOUBLE"
          },
          {
            "atomIds": [
              4,
              5
            ],
            "bo": "SINGLE"
          },
          {
            "atomIds": [
              0,
              5
            ],
            "bo": "DOUBLE"
          },
          {
            "atomIds": [
              1,
              6
            ],
            "bo": "SINGLE"
          },
          {
            "atomIds": [
              4,
              7
            ],
            "bo": "SINGLE"
          }
        ]
      },
      "vertexId": 144289,
      "buildingBlockId": 68,
      "buildingBlockType": "FRAGMENT",
      "isRCV": false,
      "properties": {
        "ATTACHMENT_POINTS": "1#bridge:0:SINGLE:2.5022%1.4447%0.0013 3#SubBridgeArS:0:SINGLE:-2.5022%1.4447%-0.0014 4#SubBridgeArS:0:SINGLE:-2.5022%-1.4447%0.0006 6#bridge:0:SINGLE:2.5022%-1.4447%-0.0015 "
      },
      "uniquefyingPropertyKeys": [],
      "allowedMutationTypes": [
        "DELETE",
        "EXTEND",
        "CHANGEBRANCH",
        "CHANGELINK",
        "ADDLINK",
        "DELETELINK",
        "DELETECHAIN"
      ],
      "vertexType": "MolecularFragment"
    },
    {
      "lstAPs": [
        {
          "id": 436476,
          "atomPositionNumber": 0,
          "atomPositionNumberInMol": 21,
          "apClass": {
            "rule": "SubRS",
            "subClass": 1,
            "bndTyp": "SINGLE"
          },
          "dirVec": {
            "x": 0.2865,
            "y": 0.3959,
            "z": -0.6387
          }
        }
      ],
      "lstSymAPs": [],
      "mol": {
        "atoms": [
          {
            "elSymbol": "C",
            "p3d": {
              "x": 0.3969,
              "y": -0.0496,
              "z": 0.8235
            }
          },
          {
            "elSymbol": "H",
            "p3d": {
              "x": -0.6146,
              "y": -0.163,
              "z": 1.2402
            }
          },
          {
            "elSymbol": "H",
            "p3d": {
              "x": 0.9335,
              "y": -0.9979,
              "z": 0.8998
            }
          },
          {
            "elSymbol": "H",
            "p3d": {
              "x": 0.9252,
              "y": 0.7237,
              "z": 1.3995
            }
          }
        ],
        "bonds": [
          {
            "atomIds": [
              0,
              1
            ],
            "bo": "SINGLE"
          },
          {
            "atomIds": [
              0,
              2
            ],
            "bo": "SINGLE"
          },
          {
            "atomIds": [
              0,
              3
            ],
            "bo": "SINGLE"
          }
        ]
      },
      "vertexId": 144290,
      "buildingBlockId": 23,
      "buildingBlockType": "FRAGMENT",
      "isRCV": false,
      "properties": {
        "ATTACHMENT_POINTS": "1#SubRS:1:SINGLE:0.2865%0.3959%-0.6387 "
      },
      "uniquefyingPropertyKeys": [],
      "allowedMutationTypes": [
        "DELETE",
        "EXTEND",
        "CHANGEBRANCH",
        "CHANGELINK",
        "ADDLINK",
        "DELETELINK",
        "DELETECHAIN"
      ],
      "vertexType": "MolecularFragment"
    },
    {
      "lstAPs": [
        {
          "id": 436477,
          "atomPositionNumber": 0,
          "atomPositionNumberInMol": 36,
          "apClass": {
            "rule": "ATminus",
            "subClass": 0,
            "bndTyp": "ANY"
          },
          "dirVec": {
            "x": 0.0109,
            "y": -0.0071,
            "z": 0.0026
          }
        }
      ],
      "lstSymAPs": [],
      "mol": {
        "atoms": [
          {
            "elSymbol": "ATM",
            "p3d": {
              "x": -0.0096,
              "y": 0.0045,
              "z": -0.0011
            }
          }
        ],
        "bonds": []
      },
      "vertexId": 144291,
      "buildingBlockId": 78,
      "buildingBlockType": "FRAGMENT",
      "isRCV": true,
      "properties": {
        "ATTACHMENT_POINTS": "1#ATminus:0:ANY:0.0109%-0.0071%0.0026 "
      },
      "uniquefyingPropertyKeys": [],
      "allowedMutationTypes": [
        "DELETE",
        "EXTEND",
        "CHANGEBRANCH",
        "CHANGELINK",
        "ADDLINK",
        "DELETELINK",
        "DELETECHAIN"
      ],
      "vertexType": "MolecularFragment"
    },
    {
      "lstAPs": [
        {
          "id": 436478,
          "atomPositionNumber": 0,
          "atomPositionNumberInMol": 25,
          "apClass": {
            "rule": "ATminus",
            "subClass": 0,
            "bndTyp": "ANY"
          },
          "dirVec": {
            "x": 0.0109,
            "y": -0.0071,
            "z": 0.0026
          }
        }
      ],
      "lstSymAPs": [],
      "mol": {
        "atoms": [
          {
            "elSymbol": "ATM",
            "p3d": {
              "x": -0.0096,
              "y": 0.0045,
              "z": -0.0011
            }
          }
        ],
        "bonds": []
      },
      "vertexId": 144292,
      "buildingBlockId": 78,
      "buildingBlockType": "FRAGMENT",
      "isRCV": true,
      "properties": {
        "ATTACHMENT_POINTS": "1#ATminus:0:ANY:0.0109%-0.0071%0.0026 "
      },
      "uniquefyingPropertyKeys": [],
      "allowedMutationTypes": [
        "DELETE",
        "EXTEND",
        "CHANGEBRANCH",
        "CHANGELINK",
        "ADDLINK",
        "DELETELINK",
        "DELETECHAIN"
      ],
      "vertexType": "MolecularFragment"
    },
    {
      "lstAPs": [
        {
          "id": 436479,
          "atomPositionNumber": 0,
          "atomPositionNumberInMol": 37,
          "apClass": {
            "rule": "hyd",
            "subClass": 1,
            "bndTyp": "SINGLE"
          },
          "dirVec": {
            "x": 0.4589,
            "y": -1.751,
            "z": 0.3869
          }
        }
      ],
      "lstSymAPs": [],
      "mol": {
        "atoms": [
          {
            "elSymbol": "H",
            "p3d": {
              "x": 0.1925,
              "y": -2.5024,
              "z": 1.1483
            }
          }
        ],
        "bonds": []
      },
      "vertexId": 144293,
      "buildingBlockId": 0,
      "buildingBlockType": "CAP",
      "isRCV": false,
      "properties": {
        "ATTACHMENT_POINTS": "1#hyd:1:SINGLE:0.4589%-1.7510%0.3869 "
      },
      "uniquefyingPropertyKeys": [],
      "allowedMutationTypes": [
        "DELETE",
        "EXTEND",
        "CHANGEBRANCH",
        "CHANGELINK",
        "ADDLINK",
        "DELETELINK",
        "DELETECHAIN"
      ],
      "vertexType": "MolecularFragment"
    },
    {
      "lstAPs": [
        {
          "id": 436480,
          "atomPositionNumber": 0,
          "atomPositionNumberInMol": 38,
          "apClass": {
            "rule": "SubRS",
            "subClass": 1,
            "bndTyp": "SINGLE"
          },
          "dirVec": {
            "x": 0.2865,
            "y": 0.3959,
            "z": -0.6387
          }
        }
      ],
      "lstSymAPs": [],
      "mol": {
        "atoms": [
          {
            "elSymbol": "C",
            "p3d": {
              "x": 0.3969,
              "y": -0.0496,
              "z": 0.8235
            }
          },
          {
            "elSymbol": "H",
            "p3d": {
              "x": -0.6146,
              "y": -0.163,
              "z": 1.2402
            }
          },
          {
            "elSymbol": "H",
            "p3d": {
              "x": 0.9335,
              "y": -0.9979,
              "z": 0.8998
            }
          },
          {
            "elSymbol": "H",
            "p3d": {
              "x": 0.9252,
              "y": 0.7237,
              "z": 1.3995
            }
          }
        ],
        "bonds": [
          {
            "atomIds": [
              0,
              1
            ],
            "bo": "SINGLE"
          },
          {
            "atomIds": [
              0,
              2
            ],
            "bo": "SINGLE"
          },
          {
            "atomIds": [
              0,
              3
            ],
            "bo": "SINGLE"
          }
        ]
      },
      "vertexId": 144294,
      "buildingBlockId": 23,
      "buildingBlockType": "FRAGMENT",
      "isRCV": false,
      "properties": {
        "ATTACHMENT_POINTS": "1#SubRS:1:SINGLE:0.2865%0.3959%-0.6387 "
      },
      "uniquefyingPropertyKeys": [],
      "allowedMutationTypes": [
        "DELETE",
        "EXTEND",
        "CHANGEBRANCH",
        "CHANGELINK",
        "ADDLINK",
        "DELETELINK",
        "DELETECHAIN"
      ],
      "vertexType": "MolecularFragment"
    },
    {
      "lstAPs": [
        {
          "id": 436481,
          "atomPositionNumber": 0,
          "atomPositionNumberInMol": 26,
          "apClass": {
            "rule": "hyd",
            "subClass": 1,
            "bndTyp": "SINGLE"
          },
          "dirVec": {
            "x": 0.4589,
            "y": -1.751,
            "z": 0.3869
          }
        }
      ],
      "lstSymAPs": [],
      "mol": {
        "atoms": [
          {
            "elSymbol": "H",
            "p3d": {
              "x": 0.1925,
              "y": -2.5024,
              "z": 1.1483
            }
          }
        ],
        "bonds": []
      },
      "vertexId": 144295,
      "buildingBlockId": 0,
      "buildingBlockType": "CAP",
      "isRCV": false,
      "properties": {
        "ATTACHMENT_POINTS": "1#hyd:1:SINGLE:0.4589%-1.7510%0.3869 "
      },
      "uniquefyingPropertyKeys": [],
      "allowedMutationTypes": [
        "DELETE",
        "EXTEND",
        "CHANGEBRANCH",
        "CHANGELINK",
        "ADDLINK",
        "DELETELINK",
        "DELETECHAIN"
      ],
      "vertexType": "MolecularFragment"
    },
    {
      "lstAPs": [
        {
          "id": 436566,
          "atomPositionNumber": 0,
          "atomPositionNumberInMol": 8,
          "apClass": {
            "rule": "SubRS",
            "subClass": 1,
            "bndTyp": "SINGLE"
          },
          "dirVec": {
            "x": 0.2865,
            "y": 0.3959,
            "z": -0.6387
          }
        }
      ],
      "lstSymAPs": [],
      "mol": {
        "atoms": [
          {
            "elSymbol": "C",
            "p3d": {
              "x": 0.3969,
              "y": -0.0496,
              "z": 0.8235
            }
          },
          {
            "elSymbol": "H",
            "p3d": {
              "x": -0.6146,
              "y": -0.163,
              "z": 1.2402
            }
          },
          {
            "elSymbol": "H",
            "p3d": {
              "x": 0.9335,
              "y": -0.9979,
              "z": 0.8998
            }
          },
          {
            "elSymbol": "H",
            "p3d": {
              "x": 0.9252,
              "y": 0.7237,
              "z": 1.3995
            }
          }
        ],
        "bonds": [
          {
            "atomIds": [
              0,
              1
            ],
            "bo": "SINGLE"
          },
          {
            "atomIds": [
              0,
              2
            ],
            "bo": "SINGLE"
          },
          {
            "atomIds": [
              0,
              3
            ],
            "bo": "SINGLE"
          }
        ]
      },
      "vertexId": 494175,
      "buildingBlockId": 23,
      "buildingBlockType": "FRAGMENT",
      "isRCV": false,
      "properties": {
        "ATTACHMENT_POINTS": "1#SubRS:1:SINGLE:0.2865%0.3959%-0.6387 "
      },
      "uniquefyingPropertyKeys": [],
      "allowedMutationTypes": [
        "DELETE",
        "EXTEND",
        "CHANGEBRANCH",
        "CHANGELINK",
        "ADDLINK",
        "DELETELINK",
        "DELETECHAIN"
      ],
      "vertexType": "MolecularFragment"
    }
  ],
  "gEdges": [
    {
      "srcAPID": 436457,
      "trgAPID": 436461,
      "bondType": "SINGLE"
    },
    {
      "srcAPID": 436458,
      "trgAPID": 436462,
      "bondType": "SINGLE"
    },
    {
      "srcAPID": 436459,
      "trgAPID": 436463,
      "bondType": "SINGLE"
    },
    {
      "srcAPID": 436456,
      "trgAPID": 436464,
      "bondType": "SINGLE"
    },
    {
      "srcAPID": 436455,
      "trgAPID": 436466,
      "bondType": "SINGLE"
    },
    {
      "srcAPID": 436467,
      "trgAPID": 436468,
      "bondType": "SINGLE"
    },
    {
      "srcAPID": 436465,
      "trgAPID": 436472,
      "bondType": "SINGLE"
    },
    {
      "srcAPID": 436475,
      "trgAPID": 436476,
      "bondType": "SINGLE"
    },
    {
      "srcAPID": 436469,
      "trgAPID": 436477,
      "bondType": "SINGLE"
    },
    {
      "srcAPID": 436473,
      "trgAPID": 436478,
      "bondType": "SINGLE"
    },
    {
      "srcAPID": 436470,
      "trgAPID": 436479,
      "bondType": "SINGLE"
    },
    {
      "srcAPID": 436471,
      "trgAPID": 436480,
      "bondType": "SINGLE"
    },
    {
      "srcAPID": 436474,
      "trgAPID": 436481,
      "bondType": "SINGLE"
    },
    {
      "srcAPID": 436460,
      "trgAPID": 436566,
      "bondType": "SINGLE"
    }
  ],
  "gRings": [
    {
      "vertices": [
        144284,
        144283,
        144282,
        144287,
        144288,
        144291
      ],
      "bndTyp": "SINGLE"
    },
    {
      "vertices": [
        144285,
        144283,
        144282,
        144286,
        144289,
        144292
      ],
      "bndTyp": "SINGLE"
    }
  ],
  "symVertices": [
    {
      "symIds": [
        144284,
        144285
      ]
    },
    {
      "symIds": [
        144286,
        144287
      ]
    },
    {
      "symIds": [
        144288,
        144289
      ]
    },
    {
      "symIds": [
        144291,
        144292
      ]
    },
    {
      "symIds": [
        144293,
        144295
      ]
    },
    {
      "symIds": [
        144290,
        144294
      ]
    }
  ]
}

> <SMILES>
[Pt]12(C#O)[P](C([H])([H])[H])(C=3C(=C(C(=C(C3S1)[H])[H])C([H])([H])[H])[H])C=4C(=C(C(=C(C4S2)[H])[H])C([H])([H])[H])[H]

$$$$
