M10007441
  CDK     05042201043D

 47 51  0  0  0  0  0  0  0  0999 V2000
    0.0323    0.0082    1.7592 Pt  0  0  0  0  0  0  0  0  0  0  0  0
    0.0899   -0.0088    3.6942 C   0  0  0  0  0  0  0  0  0  0  0  0
    0.1229   -0.0185    4.8358 O   0  0  0  0  0  0  0  0  0  0  0  0
   -0.8233   -0.8684   -0.9523 N   0  0  1  0  0  0  0  0  0  0  0  0
    0.6879    0.9609   -0.9832 N   0  0  1  0  0  0  0  0  0  0  0  0
   -0.0360    0.0314   -0.2853 C   0  0  0  0  0  0  0  0  0  0  0  0
   -0.9381   -0.8621   -2.4487 C   0  0  0  0  0  0  0  0  0  0  0  0
   -1.8108   -0.2307   -2.7365 H   0  0  0  0  0  0  0  0  0  0  0  0
   -1.1462   -1.8949   -2.8118 H   0  0  0  0  0  0  0  0  0  0  0  0
    0.3465   -0.3360   -3.0822 C   0  0  0  0  0  0  0  0  0  0  0  0
    0.2417   -0.2675   -4.1828 H   0  0  0  0  0  0  0  0  0  0  0  0
    1.1892   -1.0375   -2.9027 H   0  0  0  0  0  0  0  0  0  0  0  0
    0.6444    1.0344   -2.4821 C   0  0  0  0  0  0  0  0  0  0  0  0
    1.6159    1.4169   -2.8713 H   0  0  0  0  0  0  0  0  0  0  0  0
   -0.1369    1.7751   -2.7753 H   0  0  0  0  0  0  0  0  0  0  0  0
    0.6687   -1.9498    1.8076 O   0  0  0  0  0  0  0  0  0  0  0  0
   -0.0938   -4.0267    1.6657 O   0  0  0  0  0  0  0  0  0  0  0  0
   -0.3046   -2.8404    1.5750 C   0  0  0  0  0  0  0  0  0  0  0  0
   -1.6569   -1.9708   -0.3666 C   0  0  2  0  0  0  0  0  0  0  0  0
   -3.1655   -1.7926   -0.6772 C   0  0  0  0  0  0  0  0  0  0  0  0
   -3.8844   -2.7164    0.3264 C   0  0  0  0  0  0  0  0  0  0  0  0
   -2.8496   -3.1109    1.3994 C   0  0  0  0  0  0  0  0  0  0  0  0
   -1.6293   -2.1966    1.1605 C   0  0  1  0  0  0  0  0  0  0  0  0
   -1.2843   -2.9180   -0.8584 H   0  0  0  0  0  0  0  0  0  0  0  0
   -3.4768   -0.7413   -0.5333 H   0  0  0  0  0  0  0  0  0  0  0  0
   -3.4117   -2.0554   -1.7168 H   0  0  0  0  0  0  0  0  0  0  0  0
   -4.2878   -3.6128   -0.1753 H   0  0  0  0  0  0  0  0  0  0  0  0
   -4.7494   -2.2014    0.7794 H   0  0  0  0  0  0  0  0  0  0  0  0
   -2.5607   -4.1778    1.3105 H   0  0  0  0  0  0  0  0  0  0  0  0
   -3.2464   -2.9882    2.4205 H   0  0  0  0  0  0  0  0  0  0  0  0
   -1.8133   -1.2342    1.7200 H   0  0  0  0  0  0  0  0  0  0  0  0
   -0.5997    1.9655    1.8836 O   0  0  0  0  0  0  0  0  0  0  0  0
    0.1502    4.0466    1.7275 O   0  0  0  0  0  0  0  0  0  0  0  0
    0.3561    2.8624    1.6055 C   0  0  0  0  0  0  0  0  0  0  0  0
    1.5913    2.0225   -0.4280 C   0  0  2  0  0  0  0  0  0  0  0  0
    3.0784    1.8078   -0.8118 C   0  0  0  0  0  0  0  0  0  0  0  0
    3.8627    2.7217    0.1510 C   0  0  0  0  0  0  0  0  0  0  0  0
    2.8919    3.1264    1.2797 C   0  0  0  0  0  0  0  0  0  0  0  0
    1.6516    2.2251    1.1018 C   0  0  1  0  0  0  0  0  0  0  0  0
    1.2248    2.9892   -0.8853 H   0  0  0  0  0  0  0  0  0  0  0  0
    3.3718    0.7502   -0.6772 H   0  0  0  0  0  0  0  0  0  0  0  0
    3.2775    2.0580   -1.8652 H   0  0  0  0  0  0  0  0  0  0  0  0
    4.2482    3.6142   -0.3712 H   0  0  0  0  0  0  0  0  0  0  0  0
    4.7451    2.1960    0.5556 H   0  0  0  0  0  0  0  0  0  0  0  0
    2.6105    4.1963    1.2092 H   0  0  0  0  0  0  0  0  0  0  0  0
    3.3410    2.9958    2.2778 H   0  0  0  0  0  0  0  0  0  0  0  0
    1.8650    1.2529    1.6345 H   0  0  0  0  0  0  0  0  0  0  0  0
  2  3  3  0  0  0  0
  1  2  1  0  0  0  0
  4  6  1  0  0  0  0
  5  6  1  0  0  0  0
  7  4  1  0  0  0  0
  8  7  1  0  0  0  0
  9  7  1  0  0  0  0
 10  7  1  0  0  0  0
 11 10  1  0  0  0  0
 12 10  1  0  0  0  0
 13  5  1  0  0  0  0
 14 13  1  0  0  0  0
 15 13  1  0  0  0  0
 10 13  1  0  0  0  0
  1  6  1  0  0  0  0
 17 18  2  0  0  0  0
 18 16  1  0  0  0  0
  1 16  1  0  0  0  0
 19 20  1  0  0  0  0
 20 21  1  0  0  0  0
 21 22  1  0  0  0  0
 22 23  1  0  0  0  0
 19 23  1  0  0  0  0
 19 24  1  0  0  0  0
 20 25  1  0  0  0  0
 20 26  1  0  0  0  0
 21 27  1  0  0  0  0
 21 28  1  0  0  0  0
 22 29  1  0  0  0  0
 22 30  1  0  0  0  0
 23 31  1  0  0  0  0
 18 23  1  0  0  0  0
 33 34  2  0  0  0  0
 34 32  1  0  0  0  0
  1 32  1  0  0  0  0
 35 36  1  0  0  0  0
 36 37  1  0  0  0  0
 37 38  1  0  0  0  0
 38 39  1  0  0  0  0
 35 39  1  0  0  0  0
 35 40  1  0  0  0  0
 36 41  1  0  0  0  0
 36 42  1  0  0  0  0
 37 43  1  0  0  0  0
 37 44  1  0  0  0  0
 38 45  1  0  0  0  0
 38 46  1  0  0  0  0
 39 47  1  0  0  0  0
 34 39  1  0  0  0  0
  5 35  1  0  0  0  0
  4 19  1  0  0  0  0
M  END
> <PM6_ENERGY>
-680.916

> <UID>
RLUUJSKTGABSFG-XDTMJXHJNA-L

> <FITNESS>
1.14212

> <GCODE>
13005

> <GraphENC>
13005 700300_1_0,700301_57_1,700302_79_1,700303_79_1,700304_76_1,700305_76_1,700306_70_1,700307_70_1,700308_80_1,700309_80_1, 700300_2_700301_2_SINGLE_scaff:0_M6HPyrimidinylidene:1,700301_0_700302_0_SINGLE_L6HPyrimidinylideneSubN:0_ATplus:0,700301_1_700303_0_SINGLE_L6HPyrimidinylideneSubN:0_ATplus:0,700300_1_700304_0_SINGLE_Xlig:0_Xlig:1,700300_0_700305_0_SINGLE_Xlig:0_Xlig:1,700305_1_700306_1_SINGLE_bridge:1_bridge:0,700304_1_700307_1_SINGLE_bridge:1_bridge:0,700307_0_700308_0_SINGLE_bridge:0_ATminus:0,700306_0_700309_0_SINGLE_bridge:0_ATminus:0, DENOPTIMRing [vertices=[700302_79_1, 700301_57_1, 700300_1_0, 700304_76_1, 700307_70_1, 700308_80_1]] DENOPTIMRing [vertices=[700303_79_1, 700301_57_1, 700300_1_0, 700305_76_1, 700306_70_1, 700309_80_1]] SymmetricSet [symIds=[700302, 700303]] SymmetricSet [symIds=[700304, 700305]] SymmetricSet [symIds=[700306, 700307]] SymmetricSet [symIds=[700308, 700309]] 

> <GraphJson>
{
  "graphId": 13005,
  "gVertices": [
    {
      "lstAPs": [
        {
          "id": 1225324,
          "atomPositionNumber": 0,
          "atomPositionNumberInMol": -1,
          "apClass": {
            "rule": "Xlig",
            "subClass": 0,
            "bndTyp": "SINGLE"
          },
          "dirVec": {
            "x": -2.3339,
            "y": -0.0087,
            "z": 0.8172
          }
        },
        {
          "id": 1225325,
          "atomPositionNumber": 0,
          "atomPositionNumberInMol": -1,
          "apClass": {
            "rule": "Xlig",
            "subClass": 0,
            "bndTyp": "SINGLE"
          },
          "dirVec": {
            "x": 2.336,
            "y": -5.0E-4,
            "z": 0.829
          }
        },
        {
          "id": 1225326,
          "atomPositionNumber": 0,
          "atomPositionNumberInMol": -1,
          "apClass": {
            "rule": "scaff",
            "subClass": 0,
            "bndTyp": "SINGLE"
          },
          "dirVec": {
            "x": -0.0095,
            "y": 0.0046,
            "z": -1.7113
          }
        }
      ],
      "lstSymAPs": [
        {
          "symIds": [
            0,
            1
          ]
        }
      ],
      "mol": {
        "atoms": [
          {
            "elSymbol": "Pt",
            "p3d": {
              "x": -0.0098,
              "y": 0.0049,
              "z": 0.6289
            }
          },
          {
            "elSymbol": "C",
            "p3d": {
              "x": -6.0E-4,
              "y": 0.0016,
              "z": 2.5609
            }
          },
          {
            "elSymbol": "O",
            "p3d": {
              "x": 0.0025,
              "y": -0.0041,
              "z": 3.6974
            }
          },
          {
            "elSymbol": "Du",
            "p3d": {
              "x": -0.007,
              "y": 1.0013,
              "z": 0.6372
            }
          },
          {
            "elSymbol": "Du",
            "p3d": {
              "x": -0.0014,
              "y": 0.9902,
              "z": 2.5698
            }
          }
        ],
        "bonds": [
          {
            "atomIds": [
              1,
              2
            ],
            "bo": "TRIPLE"
          },
          {
            "atomIds": [
              0,
              1
            ],
            "bo": "SINGLE"
          },
          {
            "atomIds": [
              3,
              0
            ],
            "bo": "SINGLE"
          },
          {
            "atomIds": [
              4,
              1
            ],
            "bo": "SINGLE"
          }
        ]
      },
      "vertexId": 700300,
      "buildingBlockId": 0,
      "buildingBlockType": "SCAFFOLD",
      "isRCV": false,
      "properties": {
        "ATTACHMENT_POINTS": "1#Xlig:0:SINGLE:-2.3339%-0.0087%0.8172,Xlig:0:SINGLE:2.3360%-0.0005%0.8290,scaff:0:SINGLE:-0.0095%0.0046%-1.7113 ",
        "OLDVERTEXID": 177
      },
      "uniquefyingPropertyKeys": [],
      "allowedMutationTypes": [
        "DELETE",
        "EXTEND",
        "CHANGEBRANCH",
        "CHANGELINK",
        "ADDLINK",
        "DELETELINK",
        "DELETECHAIN"
      ],
      "vertexType": "MolecularFragment"
    },
    {
      "lstAPs": [
        {
          "id": 1225327,
          "atomPositionNumber": 0,
          "atomPositionNumberInMol": -1,
          "apClass": {
            "rule": "L6HPyrimidinylideneSubN",
            "subClass": 0,
            "bndTyp": "SINGLE"
          },
          "dirVec": {
            "x": 1.3883407152187113,
            "y": -1.9305708373750663,
            "z": -1.4728451519136216
          }
        },
        {
          "id": 1225328,
          "atomPositionNumber": 1,
          "atomPositionNumberInMol": -1,
          "apClass": {
            "rule": "L6HPyrimidinylideneSubN",
            "subClass": 0,
            "bndTyp": "SINGLE"
          },
          "dirVec": {
            "x": -1.4116930996412638,
            "y": 1.9634648640961083,
            "z": -1.5026726779359287
          }
        },
        {
          "id": 1225329,
          "atomPositionNumber": 2,
          "atomPositionNumberInMol": -1,
          "apClass": {
            "rule": "M6HPyrimidinylidene",
            "subClass": 1,
            "bndTyp": "SINGLE"
          },
          "dirVec": {
            "x": -0.009774765091213413,
            "y": 0.004874765091213455,
            "z": 0.43205088819242465
          }
        }
      ],
      "lstSymAPs": [
        {
          "symIds": [
            0,
            1
          ]
        }
      ],
      "mol": {
        "atoms": [
          {
            "elSymbol": "N",
            "p3d": {
              "x": 0.652072936281195,
              "y": -0.9267391890325968,
              "z": -2.199970333353834
            }
          },
          {
            "elSymbol": "N",
            "p3d": {
              "x": -0.637827129665478,
              "y": 0.9586684358478516,
              "z": -2.207351248841122
            }
          },
          {
            "elSymbol": "C",
            "p3d": {
              "x": -0.009525234908786586,
              "y": 0.004625234908786545,
              "z": -1.514450888192425
            }
          },
          {
            "elSymbol": "C",
            "p3d": {
              "x": 0.7706099453711337,
              "y": -0.965744069636831,
              "z": -3.6731974905719795
            }
          },
          {
            "elSymbol": "H",
            "p3d": {
              "x": 0.8307372333270738,
              "y": -1.99628974262755,
              "z": -4.008849937491664
            }
          },
          {
            "elSymbol": "H",
            "p3d": {
              "x": 1.6820747151742137,
              "y": -0.4467304034846947,
              "z": -3.993204283867276
            }
          },
          {
            "elSymbol": "C",
            "p3d": {
              "x": -0.4361532308738043,
              "y": -0.3026623235442819,
              "z": -4.271360331659661
            }
          },
          {
            "elSymbol": "H",
            "p3d": {
              "x": -1.3129075687927156,
              "y": -0.9228190365300648,
              "z": -4.107831428162321
            }
          },
          {
            "elSymbol": "H",
            "p3d": {
              "x": -0.2961873164001987,
              "y": -0.20869395263456175,
              "z": -5.354131068267435
            }
          },
          {
            "elSymbol": "C",
            "p3d": {
              "x": -0.6377270980980322,
              "y": 1.061002251967289,
              "z": -3.668972581496101
            }
          },
          {
            "elSymbol": "H",
            "p3d": {
              "x": 0.15771643881518566,
              "y": 1.7178324152794513,
              "z": -4.003843311997157
            }
          },
          {
            "elSymbol": "H",
            "p3d": {
              "x": -1.5761233211679573,
              "y": 1.4843624537484181,
              "z": -4.01173595187856
            }
          }
        ],
        "bonds": [
          {
            "atomIds": [
              0,
              2
            ],
            "bo": "SINGLE"
          },
          {
            "atomIds": [
              1,
              2
            ],
            "bo": "SINGLE"
          },
          {
            "atomIds": [
              3,
              0
            ],
            "bo": "SINGLE"
          },
          {
            "atomIds": [
              4,
              3
            ],
            "bo": "SINGLE"
          },
          {
            "atomIds": [
              5,
              3
            ],
            "bo": "SINGLE"
          },
          {
            "atomIds": [
              6,
              3
            ],
            "bo": "SINGLE"
          },
          {
            "atomIds": [
              7,
              6
            ],
            "bo": "SINGLE"
          },
          {
            "atomIds": [
              8,
              6
            ],
            "bo": "SINGLE"
          },
          {
            "atomIds": [
              9,
              1
            ],
            "bo": "SINGLE"
          },
          {
            "atomIds": [
              10,
              9
            ],
            "bo": "SINGLE"
          },
          {
            "atomIds": [
              11,
              9
            ],
            "bo": "SINGLE"
          },
          {
            "atomIds": [
              6,
              9
            ],
            "bo": "SINGLE"
          }
        ]
      },
      "vertexId": 700301,
      "buildingBlockId": 56,
      "buildingBlockType": "FRAGMENT",
      "isRCV": false,
      "properties": {
        "ATTACHMENT_POINTS": "1#L6HPyrimidinylideneSubN:0:SINGLE:1.3883%-1.9306%-1.4728 2#L6HPyrimidinylideneSubN:0:SINGLE:-1.4117%1.9635%-1.5027 3#M6HPyrimidinylidene:1:SINGLE:-0.0098%0.0049%0.4321 ",
        "OLDVERTEXID": 178
      },
      "uniquefyingPropertyKeys": [],
      "allowedMutationTypes": [
        "DELETE",
        "EXTEND",
        "CHANGEBRANCH",
        "CHANGELINK",
        "ADDLINK",
        "DELETELINK",
        "DELETECHAIN"
      ],
      "vertexType": "MolecularFragment"
    },
    {
      "lstAPs": [
        {
          "id": 1225330,
          "atomPositionNumber": 0,
          "atomPositionNumberInMol": -1,
          "apClass": {
            "rule": "ATplus",
            "subClass": 0,
            "bndTyp": "ANY"
          },
          "dirVec": {
            "x": 1.3883407152187113,
            "y": -1.930570837375066,
            "z": -1.4728451519136216
          }
        }
      ],
      "lstSymAPs": [],
      "mol": {
        "atoms": [
          {
            "elSymbol": "ATP",
            "p3d": {
              "x": 1.3990613300044117,
              "y": -1.9451873841253586,
              "z": -1.4622576602506672
            }
          }
        ],
        "bonds": []
      },
      "vertexId": 700302,
      "buildingBlockId": 78,
      "buildingBlockType": "FRAGMENT",
      "isRCV": true,
      "properties": {
        "ATTACHMENT_POINTS": "1#ATplus:0:ANY:1.3883%-1.9306%-1.4728 ",
        "OLDVERTEXID": 179
      },
      "uniquefyingPropertyKeys": [],
      "allowedMutationTypes": [
        "DELETE",
        "EXTEND",
        "CHANGEBRANCH",
        "CHANGELINK",
        "ADDLINK",
        "DELETELINK",
        "DELETECHAIN"
      ],
      "vertexType": "MolecularFragment"
    },
    {
      "lstAPs": [
        {
          "id": 1225331,
          "atomPositionNumber": 0,
          "atomPositionNumberInMol": -1,
          "apClass": {
            "rule": "ATplus",
            "subClass": 0,
            "bndTyp": "ANY"
          },
          "dirVec": {
            "x": -1.4116930996412638,
            "y": 1.963464864096108,
            "z": -1.5026726779359287
          }
        }
      ],
      "lstSymAPs": [],
      "mol": {
        "atoms": [
          {
            "elSymbol": "ATP",
            "p3d": {
              "x": -1.422889814938761,
              "y": 1.97800280732598,
              "z": -1.4924770036967328
            }
          }
        ],
        "bonds": []
      },
      "vertexId": 700303,
      "buildingBlockId": 78,
      "buildingBlockType": "FRAGMENT",
      "isRCV": true,
      "properties": {
        "ATTACHMENT_POINTS": "1#ATplus:0:ANY:-1.4117%1.9635%-1.5027 ",
        "OLDVERTEXID": 180
      },
      "uniquefyingPropertyKeys": [],
      "allowedMutationTypes": [
        "DELETE",
        "EXTEND",
        "CHANGEBRANCH",
        "CHANGELINK",
        "ADDLINK",
        "DELETELINK",
        "DELETECHAIN"
      ],
      "vertexType": "MolecularFragment"
    },
    {
      "lstAPs": [
        {
          "id": 1225332,
          "atomPositionNumber": 0,
          "atomPositionNumberInMol": -1,
          "apClass": {
            "rule": "Xlig",
            "subClass": 1,
            "bndTyp": "SINGLE"
          },
          "dirVec": {
            "x": 2.9612,
            "y": 0.482,
            "z": 3.1597
          }
        },
        {
          "id": 1225333,
          "atomPositionNumber": 2,
          "atomPositionNumberInMol": -1,
          "apClass": {
            "rule": "bridge",
            "subClass": 1,
            "bndTyp": "SINGLE"
          },
          "dirVec": {
            "x": 0.31479999999999997,
            "y": 0.7222,
            "z": 2.0817
          }
        }
      ],
      "lstSymAPs": [],
      "mol": {
        "atoms": [
          {
            "elSymbol": "O",
            "p3d": {
              "x": 2.5349,
              "y": 1.3185,
              "z": 1.3621
            }
          },
          {
            "elSymbol": "O",
            "p3d": {
              "x": 0.8537,
              "y": 1.7439,
              "z": 0.0154
            }
          },
          {
            "elSymbol": "C",
            "p3d": {
              "x": 1.2704,
              "y": 1.2787,
              "z": 1.0674
            }
          }
        ],
        "bonds": [
          {
            "atomIds": [
              1,
              2
            ],
            "bo": "DOUBLE"
          },
          {
            "atomIds": [
              2,
              0
            ],
            "bo": "SINGLE"
          }
        ]
      },
      "vertexId": 700304,
      "buildingBlockId": 75,
      "buildingBlockType": "FRAGMENT",
      "isRCV": false,
      "properties": {
        "ATTACHMENT_POINTS": "1#Xlig:1:SINGLE:2.9612%0.4820%3.1597 3#bridge:1:SINGLE:0.3148%0.7222%2.0817 ",
        "OLDVERTEXID": 1788
      },
      "uniquefyingPropertyKeys": [],
      "allowedMutationTypes": [
        "DELETE",
        "EXTEND",
        "CHANGEBRANCH",
        "CHANGELINK",
        "ADDLINK",
        "DELETELINK",
        "DELETECHAIN"
      ],
      "vertexType": "MolecularFragment"
    },
    {
      "lstAPs": [
        {
          "id": 1225334,
          "atomPositionNumber": 0,
          "atomPositionNumberInMol": -1,
          "apClass": {
            "rule": "Xlig",
            "subClass": 1,
            "bndTyp": "SINGLE"
          },
          "dirVec": {
            "x": 2.9612,
            "y": 0.482,
            "z": 3.1597
          }
        },
        {
          "id": 1225335,
          "atomPositionNumber": 2,
          "atomPositionNumberInMol": -1,
          "apClass": {
            "rule": "bridge",
            "subClass": 1,
            "bndTyp": "SINGLE"
          },
          "dirVec": {
            "x": 0.31479999999999997,
            "y": 0.7222,
            "z": 2.0817
          }
        }
      ],
      "lstSymAPs": [],
      "mol": {
        "atoms": [
          {
            "elSymbol": "O",
            "p3d": {
              "x": 2.5349,
              "y": 1.3185,
              "z": 1.3621
            }
          },
          {
            "elSymbol": "O",
            "p3d": {
              "x": 0.8537,
              "y": 1.7439,
              "z": 0.0154
            }
          },
          {
            "elSymbol": "C",
            "p3d": {
              "x": 1.2704,
              "y": 1.2787,
              "z": 1.0674
            }
          }
        ],
        "bonds": [
          {
            "atomIds": [
              1,
              2
            ],
            "bo": "DOUBLE"
          },
          {
            "atomIds": [
              2,
              0
            ],
            "bo": "SINGLE"
          }
        ]
      },
      "vertexId": 700305,
      "buildingBlockId": 75,
      "buildingBlockType": "FRAGMENT",
      "isRCV": false,
      "properties": {
        "ATTACHMENT_POINTS": "1#Xlig:1:SINGLE:2.9612%0.4820%3.1597 3#bridge:1:SINGLE:0.3148%0.7222%2.0817 ",
        "OLDVERTEXID": 1766
      },
      "uniquefyingPropertyKeys": [],
      "allowedMutationTypes": [
        "DELETE",
        "EXTEND",
        "CHANGEBRANCH",
        "CHANGELINK",
        "ADDLINK",
        "DELETELINK",
        "DELETECHAIN"
      ],
      "vertexType": "MolecularFragment"
    },
    {
      "lstAPs": [
        {
          "id": 1225336,
          "atomPositionNumber": 0,
          "atomPositionNumberInMol": -1,
          "apClass": {
            "rule": "bridge",
            "subClass": 0,
            "bndTyp": "SINGLE"
          },
          "dirVec": {
            "x": 2.2309,
            "y": 1.5817,
            "z": 0.6565999999999999
          }
        },
        {
          "id": 1225337,
          "atomPositionNumber": 4,
          "atomPositionNumberInMol": -1,
          "apClass": {
            "rule": "bridge",
            "subClass": 0,
            "bndTyp": "SINGLE"
          },
          "dirVec": {
            "x": 1.1795,
            "y": -0.8206,
            "z": 2.1815
          }
        }
      ],
      "lstSymAPs": [
        {
          "symIds": [
            0,
            1
          ]
        }
      ],
      "mol": {
        "atoms": [
          {
            "elSymbol": "C",
            "p3d": {
              "x": 1.4767,
              "y": 0.4111,
              "z": -0.0358
            }
          },
          {
            "elSymbol": "C",
            "p3d": {
              "x": 0.6064,
              "y": 0.7242,
              "z": -1.2721
            }
          },
          {
            "elSymbol": "C",
            "p3d": {
              "x": -0.3951,
              "y": -0.4594,
              "z": -1.3469
            }
          },
          {
            "elSymbol": "C",
            "p3d": {
              "x": -0.3076,
              "y": -1.2087,
              "z": 0.0097
            }
          },
          {
            "elSymbol": "C",
            "p3d": {
              "x": 0.4613,
              "y": -0.2385,
              "z": 0.9321
            }
          },
          {
            "elSymbol": "H",
            "p3d": {
              "x": 2.2245,
              "y": -0.3328,
              "z": -0.3416
            }
          },
          {
            "elSymbol": "H",
            "p3d": {
              "x": 0.0672,
              "y": 1.6663,
              "z": -1.1316
            }
          },
          {
            "elSymbol": "H",
            "p3d": {
              "x": 1.2126,
              "y": 0.798,
              "z": -2.1799
            }
          },
          {
            "elSymbol": "H",
            "p3d": {
              "x": -0.1332,
              "y": -1.1322,
              "z": -2.1707
            }
          },
          {
            "elSymbol": "H",
            "p3d": {
              "x": -1.4103,
              "y": -0.0853,
              "z": -1.5178
            }
          },
          {
            "elSymbol": "H",
            "p3d": {
              "x": 0.248,
              "y": -2.143,
              "z": -0.114
            }
          },
          {
            "elSymbol": "H",
            "p3d": {
              "x": -1.2998,
              "y": -1.4376,
              "z": 0.4073
            }
          },
          {
            "elSymbol": "H",
            "p3d": {
              "x": -0.2539,
              "y": 0.5182,
              "z": 1.28
            }
          }
        ],
        "bonds": [
          {
            "atomIds": [
              0,
              1
            ],
            "bo": "SINGLE"
          },
          {
            "atomIds": [
              1,
              2
            ],
            "bo": "SINGLE"
          },
          {
            "atomIds": [
              2,
              3
            ],
            "bo": "SINGLE"
          },
          {
            "atomIds": [
              3,
              4
            ],
            "bo": "SINGLE"
          },
          {
            "atomIds": [
              0,
              4
            ],
            "bo": "SINGLE"
          },
          {
            "atomIds": [
              0,
              5
            ],
            "bo": "SINGLE"
          },
          {
            "atomIds": [
              1,
              6
            ],
            "bo": "SINGLE"
          },
          {
            "atomIds": [
              1,
              7
            ],
            "bo": "SINGLE"
          },
          {
            "atomIds": [
              2,
              8
            ],
            "bo": "SINGLE"
          },
          {
            "atomIds": [
              2,
              9
            ],
            "bo": "SINGLE"
          },
          {
            "atomIds": [
              3,
              10
            ],
            "bo": "SINGLE"
          },
          {
            "atomIds": [
              3,
              11
            ],
            "bo": "SINGLE"
          },
          {
            "atomIds": [
              4,
              12
            ],
            "bo": "SINGLE"
          }
        ]
      },
      "vertexId": 700306,
      "buildingBlockId": 69,
      "buildingBlockType": "FRAGMENT",
      "isRCV": false,
      "properties": {
        "ATTACHMENT_POINTS": "1#bridge:0:SINGLE:2.2309%1.5817%0.6566 5#bridge:0:SINGLE:1.1795%-0.8206%2.1815 ",
        "OLDVERTEXID": 3955
      },
      "uniquefyingPropertyKeys": [],
      "allowedMutationTypes": [
        "DELETE",
        "EXTEND",
        "CHANGEBRANCH",
        "CHANGELINK",
        "ADDLINK",
        "DELETELINK",
        "DELETECHAIN"
      ],
      "vertexType": "MolecularFragment"
    },
    {
      "lstAPs": [
        {
          "id": 1225338,
          "atomPositionNumber": 0,
          "atomPositionNumberInMol": -1,
          "apClass": {
            "rule": "bridge",
            "subClass": 0,
            "bndTyp": "SINGLE"
          },
          "dirVec": {
            "x": 2.2309,
            "y": 1.5817,
            "z": 0.6565999999999999
          }
        },
        {
          "id": 1225339,
          "atomPositionNumber": 4,
          "atomPositionNumberInMol": -1,
          "apClass": {
            "rule": "bridge",
            "subClass": 0,
            "bndTyp": "SINGLE"
          },
          "dirVec": {
            "x": 1.1795,
            "y": -0.8206,
            "z": 2.1815
          }
        }
      ],
      "lstSymAPs": [
        {
          "symIds": [
            0,
            1
          ]
        }
      ],
      "mol": {
        "atoms": [
          {
            "elSymbol": "C",
            "p3d": {
              "x": 1.4767,
              "y": 0.4111,
              "z": -0.0358
            }
          },
          {
            "elSymbol": "C",
            "p3d": {
              "x": 0.6064,
              "y": 0.7242,
              "z": -1.2721
            }
          },
          {
            "elSymbol": "C",
            "p3d": {
              "x": -0.3951,
              "y": -0.4594,
              "z": -1.3469
            }
          },
          {
            "elSymbol": "C",
            "p3d": {
              "x": -0.3076,
              "y": -1.2087,
              "z": 0.0097
            }
          },
          {
            "elSymbol": "C",
            "p3d": {
              "x": 0.4613,
              "y": -0.2385,
              "z": 0.9321
            }
          },
          {
            "elSymbol": "H",
            "p3d": {
              "x": 2.2245,
              "y": -0.3328,
              "z": -0.3416
            }
          },
          {
            "elSymbol": "H",
            "p3d": {
              "x": 0.0672,
              "y": 1.6663,
              "z": -1.1316
            }
          },
          {
            "elSymbol": "H",
            "p3d": {
              "x": 1.2126,
              "y": 0.798,
              "z": -2.1799
            }
          },
          {
            "elSymbol": "H",
            "p3d": {
              "x": -0.1332,
              "y": -1.1322,
              "z": -2.1707
            }
          },
          {
            "elSymbol": "H",
            "p3d": {
              "x": -1.4103,
              "y": -0.0853,
              "z": -1.5178
            }
          },
          {
            "elSymbol": "H",
            "p3d": {
              "x": 0.248,
              "y": -2.143,
              "z": -0.114
            }
          },
          {
            "elSymbol": "H",
            "p3d": {
              "x": -1.2998,
              "y": -1.4376,
              "z": 0.4073
            }
          },
          {
            "elSymbol": "H",
            "p3d": {
              "x": -0.2539,
              "y": 0.5182,
              "z": 1.28
            }
          }
        ],
        "bonds": [
          {
            "atomIds": [
              0,
              1
            ],
            "bo": "SINGLE"
          },
          {
            "atomIds": [
              1,
              2
            ],
            "bo": "SINGLE"
          },
          {
            "atomIds": [
              2,
              3
            ],
            "bo": "SINGLE"
          },
          {
            "atomIds": [
              3,
              4
            ],
            "bo": "SINGLE"
          },
          {
            "atomIds": [
              0,
              4
            ],
            "bo": "SINGLE"
          },
          {
            "atomIds": [
              0,
              5
            ],
            "bo": "SINGLE"
          },
          {
            "atomIds": [
              1,
              6
            ],
            "bo": "SINGLE"
          },
          {
            "atomIds": [
              1,
              7
            ],
            "bo": "SINGLE"
          },
          {
            "atomIds": [
              2,
              8
            ],
            "bo": "SINGLE"
          },
          {
            "atomIds": [
              2,
              9
            ],
            "bo": "SINGLE"
          },
          {
            "atomIds": [
              3,
              10
            ],
            "bo": "SINGLE"
          },
          {
            "atomIds": [
              3,
              11
            ],
            "bo": "SINGLE"
          },
          {
            "atomIds": [
              4,
              12
            ],
            "bo": "SINGLE"
          }
        ]
      },
      "vertexId": 700307,
      "buildingBlockId": 69,
      "buildingBlockType": "FRAGMENT",
      "isRCV": false,
      "properties": {
        "ATTACHMENT_POINTS": "1#bridge:0:SINGLE:2.2309%1.5817%0.6566 5#bridge:0:SINGLE:1.1795%-0.8206%2.1815 ",
        "OLDVERTEXID": 3758
      },
      "uniquefyingPropertyKeys": [],
      "allowedMutationTypes": [
        "DELETE",
        "EXTEND",
        "CHANGEBRANCH",
        "CHANGELINK",
        "ADDLINK",
        "DELETELINK",
        "DELETECHAIN"
      ],
      "vertexType": "MolecularFragment"
    },
    {
      "lstAPs": [
        {
          "id": 1225340,
          "atomPositionNumber": 0,
          "atomPositionNumberInMol": -1,
          "apClass": {
            "rule": "ATminus",
            "subClass": 0,
            "bndTyp": "ANY"
          },
          "dirVec": {
            "x": 0.0109,
            "y": -0.0071,
            "z": 0.0026
          }
        }
      ],
      "lstSymAPs": [],
      "mol": {
        "atoms": [
          {
            "elSymbol": "ATM",
            "p3d": {
              "x": -0.0096,
              "y": 0.0045,
              "z": -0.0011
            }
          }
        ],
        "bonds": []
      },
      "vertexId": 700308,
      "buildingBlockId": 79,
      "buildingBlockType": "FRAGMENT",
      "isRCV": true,
      "properties": {
        "ATTACHMENT_POINTS": "1#ATminus:0:ANY:0.0109%-0.0071%0.0026 ",
        "OLDVERTEXID": 699917
      },
      "uniquefyingPropertyKeys": [],
      "allowedMutationTypes": [
        "DELETE",
        "EXTEND",
        "CHANGEBRANCH",
        "CHANGELINK",
        "ADDLINK",
        "DELETELINK",
        "DELETECHAIN"
      ],
      "vertexType": "MolecularFragment"
    },
    {
      "lstAPs": [
        {
          "id": 1225341,
          "atomPositionNumber": 0,
          "atomPositionNumberInMol": -1,
          "apClass": {
            "rule": "ATminus",
            "subClass": 0,
            "bndTyp": "ANY"
          },
          "dirVec": {
            "x": 0.0109,
            "y": -0.0071,
            "z": 0.0026
          }
        }
      ],
      "lstSymAPs": [],
      "mol": {
        "atoms": [
          {
            "elSymbol": "ATM",
            "p3d": {
              "x": -0.0096,
              "y": 0.0045,
              "z": -0.0011
            }
          }
        ],
        "bonds": []
      },
      "vertexId": 700309,
      "buildingBlockId": 79,
      "buildingBlockType": "FRAGMENT",
      "isRCV": true,
      "properties": {
        "ATTACHMENT_POINTS": "1#ATminus:0:ANY:0.0109%-0.0071%0.0026 ",
        "OLDVERTEXID": 699916
      },
      "uniquefyingPropertyKeys": [],
      "allowedMutationTypes": [
        "DELETE",
        "EXTEND",
        "CHANGEBRANCH",
        "CHANGELINK",
        "ADDLINK",
        "DELETELINK",
        "DELETECHAIN"
      ],
      "vertexType": "MolecularFragment"
    }
  ],
  "gEdges": [
    {
      "srcAPID": 1225326,
      "trgAPID": 1225329,
      "bondType": "SINGLE"
    },
    {
      "srcAPID": 1225327,
      "trgAPID": 1225330,
      "bondType": "SINGLE"
    },
    {
      "srcAPID": 1225328,
      "trgAPID": 1225331,
      "bondType": "SINGLE"
    },
    {
      "srcAPID": 1225325,
      "trgAPID": 1225332,
      "bondType": "SINGLE"
    },
    {
      "srcAPID": 1225324,
      "trgAPID": 1225334,
      "bondType": "SINGLE"
    },
    {
      "srcAPID": 1225335,
      "trgAPID": 1225337,
      "bondType": "SINGLE"
    },
    {
      "srcAPID": 1225333,
      "trgAPID": 1225339,
      "bondType": "SINGLE"
    },
    {
      "srcAPID": 1225338,
      "trgAPID": 1225340,
      "bondType": "SINGLE"
    },
    {
      "srcAPID": 1225336,
      "trgAPID": 1225341,
      "bondType": "SINGLE"
    }
  ],
  "gRings": [
    {
      "vertices": [
        700302,
        700301,
        700300,
        700304,
        700307,
        700308
      ],
      "bndTyp": "SINGLE"
    },
    {
      "vertices": [
        700303,
        700301,
        700300,
        700305,
        700306,
        700309
      ],
      "bndTyp": "SINGLE"
    }
  ],
  "symVertices": [
    {
      "symIds": [
        700302,
        700303
      ]
    },
    {
      "symIds": [
        700304,
        700305
      ]
    },
    {
      "symIds": [
        700306,
        700307
      ]
    },
    {
      "symIds": [
        700308,
        700309
      ]
    }
  ]
}

> <SMILES>
[Pt]12(C#O)[C]3N(C([H])([H])C([H])([H])C(N3C4(C(C(C(C4([H])C(=O)O1)([H])[H])([H])[H])([H])[H])[H])([H])[H])C5(C(C(C(C5([H])C(=O)O2)([H])[H])([H])[H])([H])[H])[H]

$$$$
