M00013038
  CDK     05042201283D

 46 52  0  0  0  0  0  0  0  0999 V2000
   -0.0013   -0.0001   -0.4251 Pt  0  0  0  0  0  0  0  0  0  0  0  0
    0.0063   -0.0004   -2.3174 C   0  0  0  0  0  0  0  0  0  0  0  0
    0.0109   -0.0004   -3.4644 O   0  0  0  0  0  0  0  0  0  0  0  0
   -0.0097   -0.0012    1.6090 N   0  0  0  0  0  0  0  0  0  0  0  0
   -0.8036   -0.9023    2.2903 C   0  0  0  0  0  0  0  0  0  0  0  0
   -0.8155   -0.9104    3.6915 C   0  0  0  0  0  0  0  0  0  0  0  0
   -1.4408   -1.6291    4.2245 H   0  0  0  0  0  0  0  0  0  0  0  0
   -0.0191   -0.0042    4.3963 C   0  0  0  0  0  0  0  0  0  0  0  0
   -0.0224   -0.0057    5.4900 H   0  0  0  0  0  0  0  0  0  0  0  0
    0.7816    0.9037    3.6987 C   0  0  0  0  0  0  0  0  0  0  0  0
    1.4033    1.6211    4.2375 H   0  0  0  0  0  0  0  0  0  0  0  0
    0.7791    0.8989    2.2973 C   0  0  0  0  0  0  0  0  0  0  0  0
    0.0591   -1.9698   -0.3636 N   0  0  0  0  0  0  0  0  0  0  0  0
   -0.7655   -2.6623    0.5527 C   0  0  0  0  0  0  0  0  0  0  0  0
   -0.5919   -4.0301    0.4400 C   0  0  0  0  0  0  0  0  0  0  0  0
    0.3910   -4.2372   -0.5930 C   0  0  0  0  0  0  0  0  0  0  0  0
    0.9768   -5.3839   -1.1573 C   0  0  0  0  0  0  0  0  0  0  0  0
    1.9260   -5.2261   -2.1540 C   0  0  0  0  0  0  0  0  0  0  0  0
    2.3158   -3.9393   -2.6059 C   0  0  0  0  0  0  0  0  0  0  0  0
    1.7636   -2.7846   -2.0775 C   0  0  0  0  0  0  0  0  0  0  0  0
    0.7893   -2.9363   -1.0705 C   0  0  0  0  0  0  0  0  0  0  0  0
   -1.0779   -4.8038    0.9941 H   0  0  0  0  0  0  0  0  0  0  0  0
    0.6814   -6.3703   -0.8087 H   0  0  0  0  0  0  0  0  0  0  0  0
    2.3910   -6.0990   -2.6064 H   0  0  0  0  0  0  0  0  0  0  0  0
    3.0708   -3.8693   -3.3878 H   0  0  0  0  0  0  0  0  0  0  0  0
    2.0734   -1.8013   -2.4123 H   0  0  0  0  0  0  0  0  0  0  0  0
   -1.6291   -1.8523    1.4633 C   0  0  0  0  0  0  0  0  0  0  0  0
   -2.3821   -1.2790    0.8623 H   0  0  0  0  0  0  0  0  0  0  0  0
   -2.2305   -2.5269    2.1133 H   0  0  0  0  0  0  0  0  0  0  0  0
   -0.0598    1.9703   -0.3646 N   0  0  0  0  0  0  0  0  0  0  0  0
    0.7573    2.6615    0.5593 C   0  0  0  0  0  0  0  0  0  0  0  0
    0.5886    4.0302    0.4432 C   0  0  0  0  0  0  0  0  0  0  0  0
   -0.3836    4.2386   -0.5989 C   0  0  0  0  0  0  0  0  0  0  0  0
   -0.9602    5.3866   -1.1699 C   0  0  0  0  0  0  0  0  0  0  0  0
   -1.9002    5.2306   -2.1756 C   0  0  0  0  0  0  0  0  0  0  0  0
   -2.2893    3.9444   -2.6299 C   0  0  0  0  0  0  0  0  0  0  0  0
   -1.7458    2.7887   -2.0950 C   0  0  0  0  0  0  0  0  0  0  0  0
   -0.7809    2.9384   -1.0786 C   0  0  0  0  0  0  0  0  0  0  0  0
    1.0716    4.8027    1.0014 H   0  0  0  0  0  0  0  0  0  0  0  0
   -0.6651    6.3724   -0.8195 H   0  0  0  0  0  0  0  0  0  0  0  0
   -2.3581    6.1044   -2.6335 H   0  0  0  0  0  0  0  0  0  0  0  0
   -3.0369    3.8759   -3.4190 H   0  0  0  0  0  0  0  0  0  0  0  0
   -2.0553    1.8060   -2.4318 H   0  0  0  0  0  0  0  0  0  0  0  0
    1.6111    1.8500    1.4780 C   0  0  0  0  0  0  0  0  0  0  0  0
    2.3695    1.2767    0.8836 H   0  0  0  0  0  0  0  0  0  0  0  0
    2.2070    2.5239    2.1340 H   0  0  0  0  0  0  0  0  0  0  0  0
  2  3  3  0  0  0  0
  1  2  1  0  0  0  0
  6  5  1  0  0  0  0
  7  6  1  0  0  0  0
  8  6  2  0  0  0  0
  9  8  1  0  0  0  0
 10  8  1  0  0  0  0
 10 12  2  0  0  0  0
 11 10  1  0  0  0  0
 12  4  1  0  0  0  0
  4  5  2  0  0  0  0
  1  4  1  0  0  0  0
 14 13  1  0  0  0  0
 15 14  2  0  0  0  0
 16 15  1  0  0  0  0
 16 21  1  0  0  0  0
 17 16  2  0  0  0  0
 18 17  1  0  0  0  0
 19 18  2  0  0  0  0
 20 19  1  0  0  0  0
 20 21  2  0  0  0  0
 21 13  1  0  0  0  0
 22 15  1  0  0  0  0
 23 17  1  0  0  0  0
 24 18  1  0  0  0  0
 25 19  1  0  0  0  0
 26 20  1  0  0  0  0
  1 13  1  0  0  0  0
 27 28  1  0  0  0  0
 27 29  1  0  0  0  0
 14 27  1  0  0  0  0
 31 30  1  0  0  0  0
 32 31  2  0  0  0  0
 33 32  1  0  0  0  0
 33 38  1  0  0  0  0
 34 33  2  0  0  0  0
 35 34  1  0  0  0  0
 36 35  2  0  0  0  0
 37 36  1  0  0  0  0
 37 38  2  0  0  0  0
 38 30  1  0  0  0  0
 39 32  1  0  0  0  0
 40 34  1  0  0  0  0
 41 35  1  0  0  0  0
 42 36  1  0  0  0  0
 43 37  1  0  0  0  0
  1 30  1  0  0  0  0
 44 45  1  0  0  0  0
 44 46  1  0  0  0  0
 31 44  1  0  0  0  0
 12 44  1  0  0  0  0
  5 27  1  0  0  0  0
M  END
> <PM6_ENERGY>
456.941

> <UID>
LUYHMKAUFMERLM-WXLZOLCJNA-N

> <FITNESS>
1.14701

> <GCODE>
21327

> <GraphENC>
21327 1195223_1_0,1195224_64_1,1195225_79_1,1195226_79_1,1195227_75_1,1195228_75_1,1195229_67_1,1195230_67_1,1195231_80_1,1195232_80_1, 1195223_2_1195224_0_SINGLE_scaff:0_MPyridine:1,1195224_1_1195225_0_SINGLE_LPyridineAlpha:0_ATplus:0,1195224_2_1195226_0_SINGLE_LPyridineAlpha:0_ATplus:0,1195223_0_1195227_0_SINGLE_Xlig:0_Xlig:1,1195223_1_1195228_0_SINGLE_Xlig:0_Xlig:1,1195227_1_1195229_0_SINGLE_bridge:1_bridge:0,1195228_1_1195230_0_SINGLE_bridge:1_bridge:0,1195229_1_1195231_0_SINGLE_bridge:0_ATminus:0,1195230_1_1195232_0_SINGLE_bridge:0_ATminus:0, DENOPTIMRing [vertices=[1195225_79_1, 1195224_64_1, 1195223_1_0, 1195227_75_1, 1195229_67_1, 1195231_80_1]] DENOPTIMRing [vertices=[1195226_79_1, 1195224_64_1, 1195223_1_0, 1195228_75_1, 1195230_67_1, 1195232_80_1]] SymmetricSet [symIds=[1195225, 1195226]] SymmetricSet [symIds=[1195227, 1195228]] SymmetricSet [symIds=[1195229, 1195230]] SymmetricSet [symIds=[1195231, 1195232]] 

> <GraphJson>
{
  "graphId": 21327,
  "gVertices": [
    {
      "lstAPs": [
        {
          "id": 2108748,
          "atomPositionNumber": 0,
          "atomPositionNumberInMol": -1,
          "apClass": {
            "rule": "Xlig",
            "subClass": 0,
            "bndTyp": "SINGLE"
          },
          "dirVec": {
            "x": -2.3339,
            "y": -0.0087,
            "z": 0.8172
          }
        },
        {
          "id": 2108749,
          "atomPositionNumber": 0,
          "atomPositionNumberInMol": -1,
          "apClass": {
            "rule": "Xlig",
            "subClass": 0,
            "bndTyp": "SINGLE"
          },
          "dirVec": {
            "x": 2.336,
            "y": -5.0E-4,
            "z": 0.829
          }
        },
        {
          "id": 2108750,
          "atomPositionNumber": 0,
          "atomPositionNumberInMol": -1,
          "apClass": {
            "rule": "scaff",
            "subClass": 0,
            "bndTyp": "SINGLE"
          },
          "dirVec": {
            "x": -0.0095,
            "y": 0.0046,
            "z": -1.7113
          }
        }
      ],
      "lstSymAPs": [
        {
          "symIds": [
            0,
            1
          ]
        }
      ],
      "mol": {
        "atoms": [
          {
            "elSymbol": "Pt",
            "p3d": {
              "x": -0.0098,
              "y": 0.0049,
              "z": 0.6289
            }
          },
          {
            "elSymbol": "C",
            "p3d": {
              "x": -6.0E-4,
              "y": 0.0016,
              "z": 2.5609
            }
          },
          {
            "elSymbol": "O",
            "p3d": {
              "x": 0.0025,
              "y": -0.0041,
              "z": 3.6974
            }
          },
          {
            "elSymbol": "Du",
            "p3d": {
              "x": -0.007,
              "y": 1.0013,
              "z": 0.6372
            }
          },
          {
            "elSymbol": "Du",
            "p3d": {
              "x": -0.0014,
              "y": 0.9902,
              "z": 2.5698
            }
          }
        ],
        "bonds": [
          {
            "atomIds": [
              1,
              2
            ],
            "bo": "TRIPLE"
          },
          {
            "atomIds": [
              0,
              1
            ],
            "bo": "SINGLE"
          },
          {
            "atomIds": [
              3,
              0
            ],
            "bo": "SINGLE"
          },
          {
            "atomIds": [
              4,
              1
            ],
            "bo": "SINGLE"
          }
        ]
      },
      "vertexId": 1195223,
      "buildingBlockId": 0,
      "buildingBlockType": "SCAFFOLD",
      "isRCV": false,
      "properties": {
        "ATTACHMENT_POINTS": "1#Xlig:0:SINGLE:-2.3339%-0.0087%0.8172,Xlig:0:SINGLE:2.3360%-0.0005%0.8290,scaff:0:SINGLE:-0.0095%0.0046%-1.7113 ",
        "OLDVERTEXID": 201
      },
      "uniquefyingPropertyKeys": [],
      "allowedMutationTypes": [
        "DELETE",
        "EXTEND",
        "CHANGEBRANCH",
        "CHANGELINK",
        "ADDLINK",
        "DELETELINK",
        "DELETECHAIN"
      ],
      "vertexType": "MolecularFragment"
    },
    {
      "lstAPs": [
        {
          "id": 2108751,
          "atomPositionNumber": 0,
          "atomPositionNumberInMol": -1,
          "apClass": {
            "rule": "MPyridine",
            "subClass": 1,
            "bndTyp": "SINGLE"
          },
          "dirVec": {
            "x": -0.009779377457537534,
            "y": 0.004879377457537382,
            "z": 0.4680304204308088
          }
        },
        {
          "id": 2108752,
          "atomPositionNumber": 1,
          "atomPositionNumberInMol": -1,
          "apClass": {
            "rule": "LPyridineAlpha",
            "subClass": 0,
            "bndTyp": "SINGLE"
          },
          "dirVec": {
            "x": 1.7498113878580424,
            "y": -1.5425521902462944,
            "z": -1.2670236023275012
          }
        },
        {
          "id": 2108753,
          "atomPositionNumber": 8,
          "atomPositionNumberInMol": -1,
          "apClass": {
            "rule": "LPyridineAlpha",
            "subClass": 0,
            "bndTyp": "SINGLE"
          },
          "dirVec": {
            "x": -1.623992272866726,
            "y": 1.694540172820501,
            "z": -1.2840127710767786
          }
        }
      ],
      "lstSymAPs": [
        {
          "symIds": [
            1,
            2
          ]
        }
      ],
      "mol": {
        "atoms": [
          {
            "elSymbol": "N",
            "p3d": {
              "x": -0.009520622542462467,
              "y": 0.004620622542462618,
              "z": -1.5504304204308088
            }
          },
          {
            "elSymbol": "C",
            "p3d": {
              "x": 0.8426955164535905,
              "y": -0.8472127361782159,
              "z": -2.181427719478363
            }
          },
          {
            "elSymbol": "C",
            "p3d": {
              "x": 0.7971687590727337,
              "y": -0.9082893750711706,
              "z": -3.5798092977837723
            }
          },
          {
            "elSymbol": "H",
            "p3d": {
              "x": 1.3486670490833412,
              "y": -1.52302742265968,
              "z": -4.050646274838936
            }
          },
          {
            "elSymbol": "C",
            "p3d": {
              "x": -0.055461761672130454,
              "y": -0.06992844379434703,
              "z": -4.269187919444612
            }
          },
          {
            "elSymbol": "H",
            "p3d": {
              "x": -0.07372803298688399,
              "y": -0.09851265747929987,
              "z": -5.218166473501693
            }
          },
          {
            "elSymbol": "C",
            "p3d": {
              "x": -0.8903705558629028,
              "y": 0.8192168796905219,
              "z": -3.5958046191557655
            }
          },
          {
            "elSymbol": "H",
            "p3d": {
              "x": -1.467637017665257,
              "y": 1.402288830115317,
              "z": -4.075034076416081
            }
          },
          {
            "elSymbol": "C",
            "p3d": {
              "x": -0.856929403375486,
              "y": 0.830711007593109,
              "z": -2.199893416985629
            }
          }
        ],
        "bonds": [
          {
            "atomIds": [
              2,
              1
            ],
            "bo": "SINGLE"
          },
          {
            "atomIds": [
              3,
              2
            ],
            "bo": "SINGLE"
          },
          {
            "atomIds": [
              4,
              2
            ],
            "bo": "DOUBLE"
          },
          {
            "atomIds": [
              5,
              4
            ],
            "bo": "SINGLE"
          },
          {
            "atomIds": [
              6,
              4
            ],
            "bo": "SINGLE"
          },
          {
            "atomIds": [
              6,
              8
            ],
            "bo": "DOUBLE"
          },
          {
            "atomIds": [
              7,
              6
            ],
            "bo": "SINGLE"
          },
          {
            "atomIds": [
              8,
              0
            ],
            "bo": "SINGLE"
          },
          {
            "atomIds": [
              0,
              1
            ],
            "bo": "DOUBLE"
          }
        ]
      },
      "vertexId": 1195224,
      "buildingBlockId": 63,
      "buildingBlockType": "FRAGMENT",
      "isRCV": false,
      "properties": {
        "ATTACHMENT_POINTS": "1#MPyridine:1:SINGLE:-0.0098%0.0049%0.4680 2#LPyridineAlpha:0:SINGLE:1.7498%-1.5426%-1.2670 9#LPyridineAlpha:0:SINGLE:-1.6240%1.6945%-1.2840 ",
        "OLDVERTEXID": 202
      },
      "uniquefyingPropertyKeys": [],
      "allowedMutationTypes": [
        "DELETE",
        "EXTEND",
        "CHANGEBRANCH",
        "CHANGELINK",
        "ADDLINK",
        "DELETELINK",
        "DELETECHAIN"
      ],
      "vertexType": "MolecularFragment"
    },
    {
      "lstAPs": [
        {
          "id": 2108754,
          "atomPositionNumber": 0,
          "atomPositionNumberInMol": -1,
          "apClass": {
            "rule": "ATplus",
            "subClass": 0,
            "bndTyp": "ANY"
          },
          "dirVec": {
            "x": 1.7498113878580424,
            "y": -1.5425521902462944,
            "z": -1.2670236023275012
          }
        }
      ],
      "lstSymAPs": [],
      "mol": {
        "atoms": [
          {
            "elSymbol": "ATP",
            "p3d": {
              "x": 1.7628208697291199,
              "y": -1.552524462044315,
              "z": -1.2539095954404926
            }
          }
        ],
        "bonds": []
      },
      "vertexId": 1195225,
      "buildingBlockId": 78,
      "buildingBlockType": "FRAGMENT",
      "isRCV": true,
      "properties": {
        "ATTACHMENT_POINTS": "1#ATplus:0:ANY:1.7498%-1.5426%-1.2670 ",
        "OLDVERTEXID": 203
      },
      "uniquefyingPropertyKeys": [],
      "allowedMutationTypes": [
        "DELETE",
        "EXTEND",
        "CHANGEBRANCH",
        "CHANGELINK",
        "ADDLINK",
        "DELETELINK",
        "DELETECHAIN"
      ],
      "vertexType": "MolecularFragment"
    },
    {
      "lstAPs": [
        {
          "id": 2108755,
          "atomPositionNumber": 0,
          "atomPositionNumberInMol": -1,
          "apClass": {
            "rule": "ATplus",
            "subClass": 0,
            "bndTyp": "ANY"
          },
          "dirVec": {
            "x": -1.623992272866726,
            "y": 1.694540172820501,
            "z": -1.2840127710767786
          }
        }
      ],
      "lstSymAPs": [],
      "mol": {
        "atoms": [
          {
            "elSymbol": "ATP",
            "p3d": {
              "x": -1.634914608334237,
              "y": 1.7068403796281795,
              "z": -1.2709713945994476
            }
          }
        ],
        "bonds": []
      },
      "vertexId": 1195226,
      "buildingBlockId": 78,
      "buildingBlockType": "FRAGMENT",
      "isRCV": true,
      "properties": {
        "ATTACHMENT_POINTS": "1#ATplus:0:ANY:-1.6240%1.6945%-1.2840 ",
        "OLDVERTEXID": 204
      },
      "uniquefyingPropertyKeys": [],
      "allowedMutationTypes": [
        "DELETE",
        "EXTEND",
        "CHANGEBRANCH",
        "CHANGELINK",
        "ADDLINK",
        "DELETELINK",
        "DELETECHAIN"
      ],
      "vertexType": "MolecularFragment"
    },
    {
      "lstAPs": [
        {
          "id": 2108756,
          "atomPositionNumber": 0,
          "atomPositionNumberInMol": -1,
          "apClass": {
            "rule": "Xlig",
            "subClass": 1,
            "bndTyp": "SINGLE"
          },
          "dirVec": {
            "x": 1.6157,
            "y": 4.174,
            "z": -3.9778
          }
        },
        {
          "id": 2108757,
          "atomPositionNumber": 1,
          "atomPositionNumberInMol": -1,
          "apClass": {
            "rule": "bridge",
            "subClass": 1,
            "bndTyp": "SINGLE"
          },
          "dirVec": {
            "x": 1.8005,
            "y": 5.9885,
            "z": -1.6916
          }
        }
      ],
      "lstSymAPs": [],
      "mol": {
        "atoms": [
          {
            "elSymbol": "N",
            "p3d": {
              "x": 3.2459,
              "y": 5.1712,
              "z": -3.4361
            }
          },
          {
            "elSymbol": "C",
            "p3d": {
              "x": 3.1168,
              "y": 5.9027,
              "z": -2.2546
            }
          },
          {
            "elSymbol": "C",
            "p3d": {
              "x": 4.3191,
              "y": 6.5056,
              "z": -1.9234
            }
          },
          {
            "elSymbol": "C",
            "p3d": {
              "x": 5.2572,
              "y": 6.1707,
              "z": -2.9298
            }
          },
          {
            "elSymbol": "C",
            "p3d": {
              "x": 6.582,
              "y": 6.5002,
              "z": -3.1678
            }
          },
          {
            "elSymbol": "C",
            "p3d": {
              "x": 7.1905,
              "y": 6.1037,
              "z": -4.3266
            }
          },
          {
            "elSymbol": "C",
            "p3d": {
              "x": 6.49,
              "y": 5.3293,
              "z": -5.2524
            }
          },
          {
            "elSymbol": "C",
            "p3d": {
              "x": 5.1723,
              "y": 4.9274,
              "z": -5.0458
            }
          },
          {
            "elSymbol": "C",
            "p3d": {
              "x": 4.5534,
              "y": 5.34,
              "z": -3.8694
            }
          },
          {
            "elSymbol": "H",
            "p3d": {
              "x": 4.4846,
              "y": 7.0468,
              "z": -1.1588
            }
          },
          {
            "elSymbol": "H",
            "p3d": {
              "x": 7.0676,
              "y": 7.004,
              "z": -2.5242
            }
          },
          {
            "elSymbol": "H",
            "p3d": {
              "x": 8.0904,
              "y": 6.3555,
              "z": -4.5017
            }
          },
          {
            "elSymbol": "H",
            "p3d": {
              "x": 6.9258,
              "y": 5.0667,
              "z": -6.0535
            }
          },
          {
            "elSymbol": "H",
            "p3d": {
              "x": 4.714,
              "y": 4.3942,
              "z": -5.6832
            }
          }
        ],
        "bonds": [
          {
            "atomIds": [
              1,
              0
            ],
            "bo": "SINGLE"
          },
          {
            "atomIds": [
              2,
              1
            ],
            "bo": "DOUBLE"
          },
          {
            "atomIds": [
              3,
              2
            ],
            "bo": "SINGLE"
          },
          {
            "atomIds": [
              3,
              8
            ],
            "bo": "SINGLE"
          },
          {
            "atomIds": [
              4,
              3
            ],
            "bo": "DOUBLE"
          },
          {
            "atomIds": [
              5,
              4
            ],
            "bo": "SINGLE"
          },
          {
            "atomIds": [
              6,
              5
            ],
            "bo": "DOUBLE"
          },
          {
            "atomIds": [
              7,
              6
            ],
            "bo": "SINGLE"
          },
          {
            "atomIds": [
              7,
              8
            ],
            "bo": "DOUBLE"
          },
          {
            "atomIds": [
              8,
              0
            ],
            "bo": "SINGLE"
          },
          {
            "atomIds": [
              9,
              2
            ],
            "bo": "SINGLE"
          },
          {
            "atomIds": [
              10,
              4
            ],
            "bo": "SINGLE"
          },
          {
            "atomIds": [
              11,
              5
            ],
            "bo": "SINGLE"
          },
          {
            "atomIds": [
              12,
              6
            ],
            "bo": "SINGLE"
          },
          {
            "atomIds": [
              13,
              7
            ],
            "bo": "SINGLE"
          }
        ]
      },
      "vertexId": 1195227,
      "buildingBlockId": 74,
      "buildingBlockType": "FRAGMENT",
      "isRCV": false,
      "properties": {
        "ATTACHMENT_POINTS": "1#Xlig:1:SINGLE:1.6157%4.1740%-3.9778 2#bridge:1:SINGLE:1.8005%5.9885%-1.6916 ",
        "OLDVERTEXID": 699
      },
      "uniquefyingPropertyKeys": [],
      "allowedMutationTypes": [
        "DELETE",
        "EXTEND",
        "CHANGEBRANCH",
        "CHANGELINK",
        "ADDLINK",
        "DELETELINK",
        "DELETECHAIN"
      ],
      "vertexType": "MolecularFragment"
    },
    {
      "lstAPs": [
        {
          "id": 2108758,
          "atomPositionNumber": 0,
          "atomPositionNumberInMol": -1,
          "apClass": {
            "rule": "Xlig",
            "subClass": 1,
            "bndTyp": "SINGLE"
          },
          "dirVec": {
            "x": 1.6157,
            "y": 4.174,
            "z": -3.9778
          }
        },
        {
          "id": 2108759,
          "atomPositionNumber": 1,
          "atomPositionNumberInMol": -1,
          "apClass": {
            "rule": "bridge",
            "subClass": 1,
            "bndTyp": "SINGLE"
          },
          "dirVec": {
            "x": 1.8005,
            "y": 5.9885,
            "z": -1.6916
          }
        }
      ],
      "lstSymAPs": [],
      "mol": {
        "atoms": [
          {
            "elSymbol": "N",
            "p3d": {
              "x": 3.2459,
              "y": 5.1712,
              "z": -3.4361
            }
          },
          {
            "elSymbol": "C",
            "p3d": {
              "x": 3.1168,
              "y": 5.9027,
              "z": -2.2546
            }
          },
          {
            "elSymbol": "C",
            "p3d": {
              "x": 4.3191,
              "y": 6.5056,
              "z": -1.9234
            }
          },
          {
            "elSymbol": "C",
            "p3d": {
              "x": 5.2572,
              "y": 6.1707,
              "z": -2.9298
            }
          },
          {
            "elSymbol": "C",
            "p3d": {
              "x": 6.582,
              "y": 6.5002,
              "z": -3.1678
            }
          },
          {
            "elSymbol": "C",
            "p3d": {
              "x": 7.1905,
              "y": 6.1037,
              "z": -4.3266
            }
          },
          {
            "elSymbol": "C",
            "p3d": {
              "x": 6.49,
              "y": 5.3293,
              "z": -5.2524
            }
          },
          {
            "elSymbol": "C",
            "p3d": {
              "x": 5.1723,
              "y": 4.9274,
              "z": -5.0458
            }
          },
          {
            "elSymbol": "C",
            "p3d": {
              "x": 4.5534,
              "y": 5.34,
              "z": -3.8694
            }
          },
          {
            "elSymbol": "H",
            "p3d": {
              "x": 4.4846,
              "y": 7.0468,
              "z": -1.1588
            }
          },
          {
            "elSymbol": "H",
            "p3d": {
              "x": 7.0676,
              "y": 7.004,
              "z": -2.5242
            }
          },
          {
            "elSymbol": "H",
            "p3d": {
              "x": 8.0904,
              "y": 6.3555,
              "z": -4.5017
            }
          },
          {
            "elSymbol": "H",
            "p3d": {
              "x": 6.9258,
              "y": 5.0667,
              "z": -6.0535
            }
          },
          {
            "elSymbol": "H",
            "p3d": {
              "x": 4.714,
              "y": 4.3942,
              "z": -5.6832
            }
          }
        ],
        "bonds": [
          {
            "atomIds": [
              1,
              0
            ],
            "bo": "SINGLE"
          },
          {
            "atomIds": [
              2,
              1
            ],
            "bo": "DOUBLE"
          },
          {
            "atomIds": [
              3,
              2
            ],
            "bo": "SINGLE"
          },
          {
            "atomIds": [
              3,
              8
            ],
            "bo": "SINGLE"
          },
          {
            "atomIds": [
              4,
              3
            ],
            "bo": "DOUBLE"
          },
          {
            "atomIds": [
              5,
              4
            ],
            "bo": "SINGLE"
          },
          {
            "atomIds": [
              6,
              5
            ],
            "bo": "DOUBLE"
          },
          {
            "atomIds": [
              7,
              6
            ],
            "bo": "SINGLE"
          },
          {
            "atomIds": [
              7,
              8
            ],
            "bo": "DOUBLE"
          },
          {
            "atomIds": [
              8,
              0
            ],
            "bo": "SINGLE"
          },
          {
            "atomIds": [
              9,
              2
            ],
            "bo": "SINGLE"
          },
          {
            "atomIds": [
              10,
              4
            ],
            "bo": "SINGLE"
          },
          {
            "atomIds": [
              11,
              5
            ],
            "bo": "SINGLE"
          },
          {
            "atomIds": [
              12,
              6
            ],
            "bo": "SINGLE"
          },
          {
            "atomIds": [
              13,
              7
            ],
            "bo": "SINGLE"
          }
        ]
      },
      "vertexId": 1195228,
      "buildingBlockId": 74,
      "buildingBlockType": "FRAGMENT",
      "isRCV": false,
      "properties": {
        "ATTACHMENT_POINTS": "1#Xlig:1:SINGLE:1.6157%4.1740%-3.9778 2#bridge:1:SINGLE:1.8005%5.9885%-1.6916 ",
        "OLDVERTEXID": 713
      },
      "uniquefyingPropertyKeys": [],
      "allowedMutationTypes": [
        "DELETE",
        "EXTEND",
        "CHANGEBRANCH",
        "CHANGELINK",
        "ADDLINK",
        "DELETELINK",
        "DELETECHAIN"
      ],
      "vertexType": "MolecularFragment"
    },
    {
      "lstAPs": [
        {
          "id": 2108760,
          "atomPositionNumber": 0,
          "atomPositionNumberInMol": -1,
          "apClass": {
            "rule": "bridge",
            "subClass": 0,
            "bndTyp": "SINGLE"
          },
          "dirVec": {
            "x": -1.0417,
            "y": -0.7693,
            "z": 0.07320000000000002
          }
        },
        {
          "id": 2108761,
          "atomPositionNumber": 0,
          "atomPositionNumberInMol": -1,
          "apClass": {
            "rule": "bridge",
            "subClass": 0,
            "bndTyp": "SINGLE"
          },
          "dirVec": {
            "x": 1.2664,
            "y": -1.9999999999997797E-4,
            "z": 0.2522
          }
        }
      ],
      "lstSymAPs": [
        {
          "symIds": [
            0,
            1
          ]
        }
      ],
      "mol": {
        "atoms": [
          {
            "elSymbol": "C",
            "p3d": {
              "x": 0.4112,
              "y": -1.2101,
              "z": -0.1993
            }
          },
          {
            "elSymbol": "H",
            "p3d": {
              "x": 0.6587,
              "y": -2.0933,
              "z": 0.3897
            }
          },
          {
            "elSymbol": "H",
            "p3d": {
              "x": 0.5577,
              "y": -1.4056,
              "z": -1.2616
            }
          }
        ],
        "bonds": [
          {
            "atomIds": [
              0,
              1
            ],
            "bo": "SINGLE"
          },
          {
            "atomIds": [
              0,
              2
            ],
            "bo": "SINGLE"
          }
        ]
      },
      "vertexId": 1195229,
      "buildingBlockId": 66,
      "buildingBlockType": "FRAGMENT",
      "isRCV": false,
      "properties": {
        "ATTACHMENT_POINTS": "1#bridge:0:SINGLE:-1.0417%-0.7693%0.0732,bridge:0:SINGLE:1.2664%-0.0002%0.2522 ",
        "OLDVERTEXID": 21551
      },
      "uniquefyingPropertyKeys": [],
      "allowedMutationTypes": [
        "DELETE",
        "EXTEND",
        "CHANGEBRANCH",
        "CHANGELINK",
        "ADDLINK",
        "DELETELINK",
        "DELETECHAIN"
      ],
      "vertexType": "MolecularFragment"
    },
    {
      "lstAPs": [
        {
          "id": 2108762,
          "atomPositionNumber": 0,
          "atomPositionNumberInMol": -1,
          "apClass": {
            "rule": "bridge",
            "subClass": 0,
            "bndTyp": "SINGLE"
          },
          "dirVec": {
            "x": -1.0417,
            "y": -0.7693,
            "z": 0.07320000000000002
          }
        },
        {
          "id": 2108763,
          "atomPositionNumber": 0,
          "atomPositionNumberInMol": -1,
          "apClass": {
            "rule": "bridge",
            "subClass": 0,
            "bndTyp": "SINGLE"
          },
          "dirVec": {
            "x": 1.2664,
            "y": -1.9999999999997797E-4,
            "z": 0.2522
          }
        }
      ],
      "lstSymAPs": [
        {
          "symIds": [
            0,
            1
          ]
        }
      ],
      "mol": {
        "atoms": [
          {
            "elSymbol": "C",
            "p3d": {
              "x": 0.4112,
              "y": -1.2101,
              "z": -0.1993
            }
          },
          {
            "elSymbol": "H",
            "p3d": {
              "x": 0.6587,
              "y": -2.0933,
              "z": 0.3897
            }
          },
          {
            "elSymbol": "H",
            "p3d": {
              "x": 0.5577,
              "y": -1.4056,
              "z": -1.2616
            }
          }
        ],
        "bonds": [
          {
            "atomIds": [
              0,
              1
            ],
            "bo": "SINGLE"
          },
          {
            "atomIds": [
              0,
              2
            ],
            "bo": "SINGLE"
          }
        ]
      },
      "vertexId": 1195230,
      "buildingBlockId": 66,
      "buildingBlockType": "FRAGMENT",
      "isRCV": false,
      "properties": {
        "ATTACHMENT_POINTS": "1#bridge:0:SINGLE:-1.0417%-0.7693%0.0732,bridge:0:SINGLE:1.2664%-0.0002%0.2522 ",
        "OLDVERTEXID": 21611
      },
      "uniquefyingPropertyKeys": [],
      "allowedMutationTypes": [
        "DELETE",
        "EXTEND",
        "CHANGEBRANCH",
        "CHANGELINK",
        "ADDLINK",
        "DELETELINK",
        "DELETECHAIN"
      ],
      "vertexType": "MolecularFragment"
    },
    {
      "lstAPs": [
        {
          "id": 2108764,
          "atomPositionNumber": 0,
          "atomPositionNumberInMol": -1,
          "apClass": {
            "rule": "ATminus",
            "subClass": 0,
            "bndTyp": "ANY"
          },
          "dirVec": {
            "x": 0.0109,
            "y": -0.0071,
            "z": 0.0026
          }
        }
      ],
      "lstSymAPs": [],
      "mol": {
        "atoms": [
          {
            "elSymbol": "ATM",
            "p3d": {
              "x": -0.0096,
              "y": 0.0045,
              "z": -0.0011
            }
          }
        ],
        "bonds": []
      },
      "vertexId": 1195231,
      "buildingBlockId": 79,
      "buildingBlockType": "FRAGMENT",
      "isRCV": true,
      "properties": {
        "ATTACHMENT_POINTS": "1#ATminus:0:ANY:0.0109%-0.0071%0.0026 ",
        "OLDVERTEXID": 1194823
      },
      "uniquefyingPropertyKeys": [],
      "allowedMutationTypes": [
        "DELETE",
        "EXTEND",
        "CHANGEBRANCH",
        "CHANGELINK",
        "ADDLINK",
        "DELETELINK",
        "DELETECHAIN"
      ],
      "vertexType": "MolecularFragment"
    },
    {
      "lstAPs": [
        {
          "id": 2108765,
          "atomPositionNumber": 0,
          "atomPositionNumberInMol": -1,
          "apClass": {
            "rule": "ATminus",
            "subClass": 0,
            "bndTyp": "ANY"
          },
          "dirVec": {
            "x": 0.0109,
            "y": -0.0071,
            "z": 0.0026
          }
        }
      ],
      "lstSymAPs": [],
      "mol": {
        "atoms": [
          {
            "elSymbol": "ATM",
            "p3d": {
              "x": -0.0096,
              "y": 0.0045,
              "z": -0.0011
            }
          }
        ],
        "bonds": []
      },
      "vertexId": 1195232,
      "buildingBlockId": 79,
      "buildingBlockType": "FRAGMENT",
      "isRCV": true,
      "properties": {
        "ATTACHMENT_POINTS": "1#ATminus:0:ANY:0.0109%-0.0071%0.0026 ",
        "OLDVERTEXID": 1194824
      },
      "uniquefyingPropertyKeys": [],
      "allowedMutationTypes": [
        "DELETE",
        "EXTEND",
        "CHANGEBRANCH",
        "CHANGELINK",
        "ADDLINK",
        "DELETELINK",
        "DELETECHAIN"
      ],
      "vertexType": "MolecularFragment"
    }
  ],
  "gEdges": [
    {
      "srcAPID": 2108750,
      "trgAPID": 2108751,
      "bondType": "SINGLE"
    },
    {
      "srcAPID": 2108752,
      "trgAPID": 2108754,
      "bondType": "SINGLE"
    },
    {
      "srcAPID": 2108753,
      "trgAPID": 2108755,
      "bondType": "SINGLE"
    },
    {
      "srcAPID": 2108748,
      "trgAPID": 2108756,
      "bondType": "SINGLE"
    },
    {
      "srcAPID": 2108749,
      "trgAPID": 2108758,
      "bondType": "SINGLE"
    },
    {
      "srcAPID": 2108757,
      "trgAPID": 2108760,
      "bondType": "SINGLE"
    },
    {
      "srcAPID": 2108759,
      "trgAPID": 2108762,
      "bondType": "SINGLE"
    },
    {
      "srcAPID": 2108761,
      "trgAPID": 2108764,
      "bondType": "SINGLE"
    },
    {
      "srcAPID": 2108763,
      "trgAPID": 2108765,
      "bondType": "SINGLE"
    }
  ],
  "gRings": [
    {
      "vertices": [
        1195225,
        1195224,
        1195223,
        1195227,
        1195229,
        1195231
      ],
      "bndTyp": "SINGLE"
    },
    {
      "vertices": [
        1195226,
        1195224,
        1195223,
        1195228,
        1195230,
        1195232
      ],
      "bndTyp": "SINGLE"
    }
  ],
  "symVertices": [
    {
      "symIds": [
        1195225,
        1195226
      ]
    },
    {
      "symIds": [
        1195227,
        1195228
      ]
    },
    {
      "symIds": [
        1195229,
        1195230
      ]
    },
    {
      "symIds": [
        1195231,
        1195232
      ]
    }
  ]
}

> <SMILES>
[Pt]12(C#O)[N]=3C(=C(C(=C(C3C([H])([H])C=4N1C=5C(C4[H])=C(C(=C(C5[H])[H])[H])[H])[H])[H])[H])C([H])([H])C=6N2C=7C(C6[H])=C(C(=C(C7[H])[H])[H])[H]

$$$$
