M10003519
  CDK     05042200493D

 35 37  0  0  0  0  0  0  0  0999 V2000
   -1.8060   -0.0088    0.0208 Pt  0  0  0  0  0  0  0  0  0  0  0  0
   -3.7149    0.0134   -0.0072 C   0  0  0  0  0  0  0  0  0  0  0  0
   -4.8628    0.0270   -0.0240 O   0  0  0  0  0  0  0  0  0  0  0  0
    0.8878   -1.0370   -0.5854 N   0  0  2  0  0  0  0  0  0  0  0  0
    0.8938    0.9573    0.7036 N   0  0  2  0  0  0  0  0  0  0  0  0
    0.2298   -0.0323    0.0504 C   0  0  0  0  0  0  0  0  0  0  0  0
    2.3727   -1.1196   -0.6083 C   0  0  0  0  0  0  0  0  0  0  0  0
    2.7067   -1.5769   -1.5658 H   0  0  0  0  0  0  0  0  0  0  0  0
    2.7070   -1.7906    0.2166 H   0  0  0  0  0  0  0  0  0  0  0  0
    2.9826    0.2813   -0.4478 C   0  0  0  0  0  0  0  0  0  0  0  0
    2.8073    0.8748   -1.3705 H   0  0  0  0  0  0  0  0  0  0  0  0
    4.0810    0.2068   -0.3358 H   0  0  0  0  0  0  0  0  0  0  0  0
    2.3792    1.0108    0.7622 C   0  0  0  0  0  0  0  0  0  0  0  0
    2.7225    0.5432    1.7140 H   0  0  0  0  0  0  0  0  0  0  0  0
    2.7125    2.0721    0.7777 H   0  0  0  0  0  0  0  0  0  0  0  0
   -1.8130   -0.3109    2.0499 O   0  0  0  0  0  0  0  0  0  0  0  0
   -1.8014    0.9078    2.7398 C   0  0  0  0  0  0  0  0  0  0  0  0
   -0.3881    1.5263    2.7773 C   0  0  0  0  0  0  0  0  0  0  0  0
    0.0935    2.0066    1.4010 C   0  0  0  0  0  0  0  0  0  0  0  0
   -2.5303    1.6023    2.2776 H   0  0  0  0  0  0  0  0  0  0  0  0
   -2.1365    0.6545    3.7677 H   0  0  0  0  0  0  0  0  0  0  0  0
   -0.3766    2.3692    3.4924 H   0  0  0  0  0  0  0  0  0  0  0  0
    0.3092    0.7673    3.1879 H   0  0  0  0  0  0  0  0  0  0  0  0
   -0.7793    2.2766    0.7475 H   0  0  0  0  0  0  0  0  0  0  0  0
    0.7136    2.9231    1.4993 H   0  0  0  0  0  0  0  0  0  0  0  0
   -1.7454    0.2916   -2.0080 O   0  0  0  0  0  0  0  0  0  0  0  0
   -1.7453   -0.9278   -2.6969 C   0  0  0  0  0  0  0  0  0  0  0  0
   -0.3477   -1.5823   -2.6946 C   0  0  0  0  0  0  0  0  0  0  0  0
    0.0838   -2.0688   -1.3041 C   0  0  0  0  0  0  0  0  0  0  0  0
   -2.5042   -1.6033   -2.2547 H   0  0  0  0  0  0  0  0  0  0  0  0
   -2.0453   -0.6675   -3.7338 H   0  0  0  0  0  0  0  0  0  0  0  0
   -0.3384   -2.4278   -3.4066 H   0  0  0  0  0  0  0  0  0  0  0  0
    0.3798   -0.8424   -3.0876 H   0  0  0  0  0  0  0  0  0  0  0  0
   -0.8130   -2.3163   -0.6742 H   0  0  0  0  0  0  0  0  0  0  0  0
    0.6853   -2.9997   -1.3803 H   0  0  0  0  0  0  0  0  0  0  0  0
  2  3  3  0  0  0  0
  1  2  1  0  0  0  0
  4  6  1  0  0  0  0
  5  6  1  0  0  0  0
  7  4  1  0  0  0  0
  8  7  1  0  0  0  0
  9  7  1  0  0  0  0
 10  7  1  0  0  0  0
 11 10  1  0  0  0  0
 12 10  1  0  0  0  0
 13  5  1  0  0  0  0
 14 13  1  0  0  0  0
 15 13  1  0  0  0  0
 10 13  1  0  0  0  0
  1  6  1  0  0  0  0
  1 16  1  0  0  0  0
 17 18  1  0  0  0  0
 18 19  1  0  0  0  0
 17 20  1  0  0  0  0
 17 21  1  0  0  0  0
 18 22  1  0  0  0  0
 18 23  1  0  0  0  0
 19 24  1  0  0  0  0
 19 25  1  0  0  0  0
 16 17  1  0  0  0  0
  1 26  1  0  0  0  0
 27 28  1  0  0  0  0
 28 29  1  0  0  0  0
 27 30  1  0  0  0  0
 27 31  1  0  0  0  0
 28 32  1  0  0  0  0
 28 33  1  0  0  0  0
 29 34  1  0  0  0  0
 29 35  1  0  0  0  0
 26 27  1  0  0  0  0
  5 19  1  0  0  0  0
  4 29  1  0  0  0  0
M  END
> <PM6_ENERGY>
-318.495

> <UID>
PUHKUZTZMGGNKU-JCTPDFCSNA-N

> <FITNESS>
1.1481

> <GCODE>
7152

> <GraphENC>
7152 355228_1_0,355229_57_1,355230_79_1,355231_79_1,355232_73_1,355233_73_1,355234_65_1,355235_65_1,355236_80_1,355237_80_1, 355228_2_355229_2_SINGLE_scaff:0_M6HPyrimidinylidene:1,355229_0_355230_0_SINGLE_L6HPyrimidinylideneSubN:0_ATplus:0,355229_1_355231_0_SINGLE_L6HPyrimidinylideneSubN:0_ATplus:0,355228_0_355232_0_SINGLE_Xlig:0_Xlig:1,355228_1_355233_0_SINGLE_Xlig:0_Xlig:1,355232_1_355234_0_SINGLE_bridge:1_bridge:0,355233_1_355235_0_SINGLE_bridge:1_bridge:0,355235_1_355236_0_SINGLE_bridge:0_ATminus:0,355234_1_355237_0_SINGLE_bridge:0_ATminus:0, DENOPTIMRing [vertices=[355230_79_1, 355229_57_1, 355228_1_0, 355233_73_1, 355235_65_1, 355236_80_1]] DENOPTIMRing [vertices=[355231_79_1, 355229_57_1, 355228_1_0, 355232_73_1, 355234_65_1, 355237_80_1]] SymmetricSet [symIds=[355230, 355231]] SymmetricSet [symIds=[355232, 355233]] SymmetricSet [symIds=[355234, 355235]] SymmetricSet [symIds=[355236, 355237]] 

> <GraphJson>
{
  "graphId": 7152,
  "gVertices": [
    {
      "lstAPs": [
        {
          "id": 629408,
          "atomPositionNumber": 0,
          "atomPositionNumberInMol": -1,
          "apClass": {
            "rule": "Xlig",
            "subClass": 0,
            "bndTyp": "SINGLE"
          },
          "dirVec": {
            "x": -2.3339,
            "y": -0.0087,
            "z": 0.8172
          }
        },
        {
          "id": 629409,
          "atomPositionNumber": 0,
          "atomPositionNumberInMol": -1,
          "apClass": {
            "rule": "Xlig",
            "subClass": 0,
            "bndTyp": "SINGLE"
          },
          "dirVec": {
            "x": 2.336,
            "y": -5.0E-4,
            "z": 0.829
          }
        },
        {
          "id": 629410,
          "atomPositionNumber": 0,
          "atomPositionNumberInMol": -1,
          "apClass": {
            "rule": "scaff",
            "subClass": 0,
            "bndTyp": "SINGLE"
          },
          "dirVec": {
            "x": -0.0095,
            "y": 0.0046,
            "z": -1.7113
          }
        }
      ],
      "lstSymAPs": [
        {
          "symIds": [
            0,
            1
          ]
        }
      ],
      "mol": {
        "atoms": [
          {
            "elSymbol": "Pt",
            "p3d": {
              "x": -0.0098,
              "y": 0.0049,
              "z": 0.6289
            }
          },
          {
            "elSymbol": "C",
            "p3d": {
              "x": -6.0E-4,
              "y": 0.0016,
              "z": 2.5609
            }
          },
          {
            "elSymbol": "O",
            "p3d": {
              "x": 0.0025,
              "y": -0.0041,
              "z": 3.6974
            }
          },
          {
            "elSymbol": "Du",
            "p3d": {
              "x": -0.007,
              "y": 1.0013,
              "z": 0.6372
            }
          },
          {
            "elSymbol": "Du",
            "p3d": {
              "x": -0.0014,
              "y": 0.9902,
              "z": 2.5698
            }
          }
        ],
        "bonds": [
          {
            "atomIds": [
              1,
              2
            ],
            "bo": "TRIPLE"
          },
          {
            "atomIds": [
              0,
              1
            ],
            "bo": "SINGLE"
          },
          {
            "atomIds": [
              3,
              0
            ],
            "bo": "SINGLE"
          },
          {
            "atomIds": [
              4,
              1
            ],
            "bo": "SINGLE"
          }
        ]
      },
      "vertexId": 355228,
      "buildingBlockId": 0,
      "buildingBlockType": "SCAFFOLD",
      "isRCV": false,
      "properties": {
        "ATTACHMENT_POINTS": "1#Xlig:0:SINGLE:-2.3339%-0.0087%0.8172,Xlig:0:SINGLE:2.3360%-0.0005%0.8290,scaff:0:SINGLE:-0.0095%0.0046%-1.7113 ",
        "OLDVERTEXID": 177
      },
      "uniquefyingPropertyKeys": [],
      "allowedMutationTypes": [
        "DELETE",
        "EXTEND",
        "CHANGEBRANCH",
        "CHANGELINK",
        "ADDLINK",
        "DELETELINK",
        "DELETECHAIN"
      ],
      "vertexType": "MolecularFragment"
    },
    {
      "lstAPs": [
        {
          "id": 629411,
          "atomPositionNumber": 0,
          "atomPositionNumberInMol": -1,
          "apClass": {
            "rule": "L6HPyrimidinylideneSubN",
            "subClass": 0,
            "bndTyp": "SINGLE"
          },
          "dirVec": {
            "x": 1.3883407152187113,
            "y": -1.9305708373750663,
            "z": -1.4728451519136216
          }
        },
        {
          "id": 629412,
          "atomPositionNumber": 1,
          "atomPositionNumberInMol": -1,
          "apClass": {
            "rule": "L6HPyrimidinylideneSubN",
            "subClass": 0,
            "bndTyp": "SINGLE"
          },
          "dirVec": {
            "x": -1.4116930996412638,
            "y": 1.9634648640961083,
            "z": -1.5026726779359287
          }
        },
        {
          "id": 629413,
          "atomPositionNumber": 2,
          "atomPositionNumberInMol": -1,
          "apClass": {
            "rule": "M6HPyrimidinylidene",
            "subClass": 1,
            "bndTyp": "SINGLE"
          },
          "dirVec": {
            "x": -0.009774765091213413,
            "y": 0.004874765091213455,
            "z": 0.43205088819242465
          }
        }
      ],
      "lstSymAPs": [
        {
          "symIds": [
            0,
            1
          ]
        }
      ],
      "mol": {
        "atoms": [
          {
            "elSymbol": "N",
            "p3d": {
              "x": 0.652072936281195,
              "y": -0.9267391890325968,
              "z": -2.199970333353834
            }
          },
          {
            "elSymbol": "N",
            "p3d": {
              "x": -0.637827129665478,
              "y": 0.9586684358478516,
              "z": -2.207351248841122
            }
          },
          {
            "elSymbol": "C",
            "p3d": {
              "x": -0.009525234908786586,
              "y": 0.004625234908786545,
              "z": -1.514450888192425
            }
          },
          {
            "elSymbol": "C",
            "p3d": {
              "x": 0.7706099453711337,
              "y": -0.965744069636831,
              "z": -3.6731974905719795
            }
          },
          {
            "elSymbol": "H",
            "p3d": {
              "x": 0.8307372333270738,
              "y": -1.99628974262755,
              "z": -4.008849937491664
            }
          },
          {
            "elSymbol": "H",
            "p3d": {
              "x": 1.6820747151742137,
              "y": -0.4467304034846947,
              "z": -3.993204283867276
            }
          },
          {
            "elSymbol": "C",
            "p3d": {
              "x": -0.4361532308738043,
              "y": -0.3026623235442819,
              "z": -4.271360331659661
            }
          },
          {
            "elSymbol": "H",
            "p3d": {
              "x": -1.3129075687927156,
              "y": -0.9228190365300648,
              "z": -4.107831428162321
            }
          },
          {
            "elSymbol": "H",
            "p3d": {
              "x": -0.2961873164001987,
              "y": -0.20869395263456175,
              "z": -5.354131068267435
            }
          },
          {
            "elSymbol": "C",
            "p3d": {
              "x": -0.6377270980980322,
              "y": 1.061002251967289,
              "z": -3.668972581496101
            }
          },
          {
            "elSymbol": "H",
            "p3d": {
              "x": 0.15771643881518566,
              "y": 1.7178324152794513,
              "z": -4.003843311997157
            }
          },
          {
            "elSymbol": "H",
            "p3d": {
              "x": -1.5761233211679573,
              "y": 1.4843624537484181,
              "z": -4.01173595187856
            }
          }
        ],
        "bonds": [
          {
            "atomIds": [
              0,
              2
            ],
            "bo": "SINGLE"
          },
          {
            "atomIds": [
              1,
              2
            ],
            "bo": "SINGLE"
          },
          {
            "atomIds": [
              3,
              0
            ],
            "bo": "SINGLE"
          },
          {
            "atomIds": [
              4,
              3
            ],
            "bo": "SINGLE"
          },
          {
            "atomIds": [
              5,
              3
            ],
            "bo": "SINGLE"
          },
          {
            "atomIds": [
              6,
              3
            ],
            "bo": "SINGLE"
          },
          {
            "atomIds": [
              7,
              6
            ],
            "bo": "SINGLE"
          },
          {
            "atomIds": [
              8,
              6
            ],
            "bo": "SINGLE"
          },
          {
            "atomIds": [
              9,
              1
            ],
            "bo": "SINGLE"
          },
          {
            "atomIds": [
              10,
              9
            ],
            "bo": "SINGLE"
          },
          {
            "atomIds": [
              11,
              9
            ],
            "bo": "SINGLE"
          },
          {
            "atomIds": [
              6,
              9
            ],
            "bo": "SINGLE"
          }
        ]
      },
      "vertexId": 355229,
      "buildingBlockId": 56,
      "buildingBlockType": "FRAGMENT",
      "isRCV": false,
      "properties": {
        "ATTACHMENT_POINTS": "1#L6HPyrimidinylideneSubN:0:SINGLE:1.3883%-1.9306%-1.4728 2#L6HPyrimidinylideneSubN:0:SINGLE:-1.4117%1.9635%-1.5027 3#M6HPyrimidinylidene:1:SINGLE:-0.0098%0.0049%0.4321 ",
        "OLDVERTEXID": 178
      },
      "uniquefyingPropertyKeys": [],
      "allowedMutationTypes": [
        "DELETE",
        "EXTEND",
        "CHANGEBRANCH",
        "CHANGELINK",
        "ADDLINK",
        "DELETELINK",
        "DELETECHAIN"
      ],
      "vertexType": "MolecularFragment"
    },
    {
      "lstAPs": [
        {
          "id": 629414,
          "atomPositionNumber": 0,
          "atomPositionNumberInMol": -1,
          "apClass": {
            "rule": "ATplus",
            "subClass": 0,
            "bndTyp": "ANY"
          },
          "dirVec": {
            "x": 1.3883407152187113,
            "y": -1.930570837375066,
            "z": -1.4728451519136216
          }
        }
      ],
      "lstSymAPs": [],
      "mol": {
        "atoms": [
          {
            "elSymbol": "ATP",
            "p3d": {
              "x": 1.3990613300044117,
              "y": -1.9451873841253586,
              "z": -1.4622576602506672
            }
          }
        ],
        "bonds": []
      },
      "vertexId": 355230,
      "buildingBlockId": 78,
      "buildingBlockType": "FRAGMENT",
      "isRCV": true,
      "properties": {
        "ATTACHMENT_POINTS": "1#ATplus:0:ANY:1.3883%-1.9306%-1.4728 ",
        "OLDVERTEXID": 179
      },
      "uniquefyingPropertyKeys": [],
      "allowedMutationTypes": [
        "DELETE",
        "EXTEND",
        "CHANGEBRANCH",
        "CHANGELINK",
        "ADDLINK",
        "DELETELINK",
        "DELETECHAIN"
      ],
      "vertexType": "MolecularFragment"
    },
    {
      "lstAPs": [
        {
          "id": 629415,
          "atomPositionNumber": 0,
          "atomPositionNumberInMol": -1,
          "apClass": {
            "rule": "ATplus",
            "subClass": 0,
            "bndTyp": "ANY"
          },
          "dirVec": {
            "x": -1.4116930996412638,
            "y": 1.963464864096108,
            "z": -1.5026726779359287
          }
        }
      ],
      "lstSymAPs": [],
      "mol": {
        "atoms": [
          {
            "elSymbol": "ATP",
            "p3d": {
              "x": -1.422889814938761,
              "y": 1.97800280732598,
              "z": -1.4924770036967328
            }
          }
        ],
        "bonds": []
      },
      "vertexId": 355231,
      "buildingBlockId": 78,
      "buildingBlockType": "FRAGMENT",
      "isRCV": true,
      "properties": {
        "ATTACHMENT_POINTS": "1#ATplus:0:ANY:-1.4117%1.9635%-1.5027 ",
        "OLDVERTEXID": 180
      },
      "uniquefyingPropertyKeys": [],
      "allowedMutationTypes": [
        "DELETE",
        "EXTEND",
        "CHANGEBRANCH",
        "CHANGELINK",
        "ADDLINK",
        "DELETELINK",
        "DELETECHAIN"
      ],
      "vertexType": "MolecularFragment"
    },
    {
      "lstAPs": [
        {
          "id": 629416,
          "atomPositionNumber": 0,
          "atomPositionNumberInMol": -1,
          "apClass": {
            "rule": "Xlig",
            "subClass": 1,
            "bndTyp": "SINGLE"
          },
          "dirVec": {
            "x": -0.1753,
            "y": 0.0948,
            "z": -0.4464
          }
        },
        {
          "id": 629417,
          "atomPositionNumber": 0,
          "atomPositionNumberInMol": -1,
          "apClass": {
            "rule": "bridge",
            "subClass": 1,
            "bndTyp": "SINGLE"
          },
          "dirVec": {
            "x": -0.5345,
            "y": 2.7646,
            "z": 0.48009999999999997
          }
        }
      ],
      "lstSymAPs": [],
      "mol": {
        "atoms": [
          {
            "elSymbol": "O",
            "p3d": {
              "x": -0.3534,
              "y": 2.1044,
              "z": -0.7339
            }
          }
        ],
        "bonds": []
      },
      "vertexId": 355232,
      "buildingBlockId": 72,
      "buildingBlockType": "FRAGMENT",
      "isRCV": false,
      "properties": {
        "ATTACHMENT_POINTS": "1#Xlig:1:SINGLE:-0.1753%0.0948%-0.4464,bridge:1:SINGLE:-0.5345%2.7646%0.4801 ",
        "OLDVERTEXID": 1763
      },
      "uniquefyingPropertyKeys": [],
      "allowedMutationTypes": [
        "DELETE",
        "EXTEND",
        "CHANGEBRANCH",
        "CHANGELINK",
        "ADDLINK",
        "DELETELINK",
        "DELETECHAIN"
      ],
      "vertexType": "MolecularFragment"
    },
    {
      "lstAPs": [
        {
          "id": 629418,
          "atomPositionNumber": 0,
          "atomPositionNumberInMol": -1,
          "apClass": {
            "rule": "Xlig",
            "subClass": 1,
            "bndTyp": "SINGLE"
          },
          "dirVec": {
            "x": -0.1753,
            "y": 0.0948,
            "z": -0.4464
          }
        },
        {
          "id": 629419,
          "atomPositionNumber": 0,
          "atomPositionNumberInMol": -1,
          "apClass": {
            "rule": "bridge",
            "subClass": 1,
            "bndTyp": "SINGLE"
          },
          "dirVec": {
            "x": -0.5345,
            "y": 2.7646,
            "z": 0.48009999999999997
          }
        }
      ],
      "lstSymAPs": [],
      "mol": {
        "atoms": [
          {
            "elSymbol": "O",
            "p3d": {
              "x": -0.3534,
              "y": 2.1044,
              "z": -0.7339
            }
          }
        ],
        "bonds": []
      },
      "vertexId": 355233,
      "buildingBlockId": 72,
      "buildingBlockType": "FRAGMENT",
      "isRCV": false,
      "properties": {
        "ATTACHMENT_POINTS": "1#Xlig:1:SINGLE:-0.1753%0.0948%-0.4464,bridge:1:SINGLE:-0.5345%2.7646%0.4801 ",
        "OLDVERTEXID": 1769
      },
      "uniquefyingPropertyKeys": [],
      "allowedMutationTypes": [
        "DELETE",
        "EXTEND",
        "CHANGEBRANCH",
        "CHANGELINK",
        "ADDLINK",
        "DELETELINK",
        "DELETECHAIN"
      ],
      "vertexType": "MolecularFragment"
    },
    {
      "lstAPs": [
        {
          "id": 629420,
          "atomPositionNumber": 0,
          "atomPositionNumberInMol": -1,
          "apClass": {
            "rule": "bridge",
            "subClass": 0,
            "bndTyp": "SINGLE"
          },
          "dirVec": {
            "x": -1.2321,
            "y": -0.7501,
            "z": -0.255
          }
        },
        {
          "id": 629421,
          "atomPositionNumber": 2,
          "atomPositionNumberInMol": -1,
          "apClass": {
            "rule": "bridge",
            "subClass": 0,
            "bndTyp": "SINGLE"
          },
          "dirVec": {
            "x": 1.2657,
            "y": -0.692,
            "z": -0.255
          }
        }
      ],
      "lstSymAPs": [
        {
          "symIds": [
            0,
            1
          ]
        }
      ],
      "mol": {
        "atoms": [
          {
            "elSymbol": "C",
            "p3d": {
              "x": -1.2657,
              "y": 0.692,
              "z": 0.255
            }
          },
          {
            "elSymbol": "C",
            "p3d": {
              "x": -0.0335,
              "y": 1.4421,
              "z": -0.255
            }
          },
          {
            "elSymbol": "C",
            "p3d": {
              "x": 1.2321,
              "y": 0.7501,
              "z": 0.255
            }
          },
          {
            "elSymbol": "H",
            "p3d": {
              "x": -2.1673,
              "y": 1.1851,
              "z": -0.1083
            }
          },
          {
            "elSymbol": "H",
            "p3d": {
              "x": -1.2657,
              "y": 0.692,
              "z": 1.345
            }
          },
          {
            "elSymbol": "H",
            "p3d": {
              "x": -0.0335,
              "y": 1.4421,
              "z": -1.345
            }
          },
          {
            "elSymbol": "H",
            "p3d": {
              "x": -0.0574,
              "y": 2.4695,
              "z": 0.1083
            }
          },
          {
            "elSymbol": "H",
            "p3d": {
              "x": 2.11,
              "y": 1.2844,
              "z": -0.1083
            }
          },
          {
            "elSymbol": "H",
            "p3d": {
              "x": 1.2321,
              "y": 0.7501,
              "z": 1.345
            }
          }
        ],
        "bonds": [
          {
            "atomIds": [
              0,
              1
            ],
            "bo": "SINGLE"
          },
          {
            "atomIds": [
              1,
              2
            ],
            "bo": "SINGLE"
          },
          {
            "atomIds": [
              0,
              3
            ],
            "bo": "SINGLE"
          },
          {
            "atomIds": [
              0,
              4
            ],
            "bo": "SINGLE"
          },
          {
            "atomIds": [
              1,
              5
            ],
            "bo": "SINGLE"
          },
          {
            "atomIds": [
              1,
              6
            ],
            "bo": "SINGLE"
          },
          {
            "atomIds": [
              2,
              7
            ],
            "bo": "SINGLE"
          },
          {
            "atomIds": [
              2,
              8
            ],
            "bo": "SINGLE"
          }
        ]
      },
      "vertexId": 355234,
      "buildingBlockId": 64,
      "buildingBlockType": "FRAGMENT",
      "isRCV": false,
      "properties": {
        "ATTACHMENT_POINTS": "1#bridge:0:SINGLE:-1.2321%-0.7501%-0.2550 3#bridge:0:SINGLE:1.2657%-0.6920%-0.2550 ",
        "OLDVERTEXID": 2841
      },
      "uniquefyingPropertyKeys": [],
      "allowedMutationTypes": [
        "DELETE",
        "EXTEND",
        "CHANGEBRANCH",
        "CHANGELINK",
        "ADDLINK",
        "DELETELINK",
        "DELETECHAIN"
      ],
      "vertexType": "MolecularFragment"
    },
    {
      "lstAPs": [
        {
          "id": 629422,
          "atomPositionNumber": 0,
          "atomPositionNumberInMol": -1,
          "apClass": {
            "rule": "bridge",
            "subClass": 0,
            "bndTyp": "SINGLE"
          },
          "dirVec": {
            "x": -1.2321,
            "y": -0.7501,
            "z": -0.255
          }
        },
        {
          "id": 629423,
          "atomPositionNumber": 2,
          "atomPositionNumberInMol": -1,
          "apClass": {
            "rule": "bridge",
            "subClass": 0,
            "bndTyp": "SINGLE"
          },
          "dirVec": {
            "x": 1.2657,
            "y": -0.692,
            "z": -0.255
          }
        }
      ],
      "lstSymAPs": [
        {
          "symIds": [
            0,
            1
          ]
        }
      ],
      "mol": {
        "atoms": [
          {
            "elSymbol": "C",
            "p3d": {
              "x": -1.2657,
              "y": 0.692,
              "z": 0.255
            }
          },
          {
            "elSymbol": "C",
            "p3d": {
              "x": -0.0335,
              "y": 1.4421,
              "z": -0.255
            }
          },
          {
            "elSymbol": "C",
            "p3d": {
              "x": 1.2321,
              "y": 0.7501,
              "z": 0.255
            }
          },
          {
            "elSymbol": "H",
            "p3d": {
              "x": -2.1673,
              "y": 1.1851,
              "z": -0.1083
            }
          },
          {
            "elSymbol": "H",
            "p3d": {
              "x": -1.2657,
              "y": 0.692,
              "z": 1.345
            }
          },
          {
            "elSymbol": "H",
            "p3d": {
              "x": -0.0335,
              "y": 1.4421,
              "z": -1.345
            }
          },
          {
            "elSymbol": "H",
            "p3d": {
              "x": -0.0574,
              "y": 2.4695,
              "z": 0.1083
            }
          },
          {
            "elSymbol": "H",
            "p3d": {
              "x": 2.11,
              "y": 1.2844,
              "z": -0.1083
            }
          },
          {
            "elSymbol": "H",
            "p3d": {
              "x": 1.2321,
              "y": 0.7501,
              "z": 1.345
            }
          }
        ],
        "bonds": [
          {
            "atomIds": [
              0,
              1
            ],
            "bo": "SINGLE"
          },
          {
            "atomIds": [
              1,
              2
            ],
            "bo": "SINGLE"
          },
          {
            "atomIds": [
              0,
              3
            ],
            "bo": "SINGLE"
          },
          {
            "atomIds": [
              0,
              4
            ],
            "bo": "SINGLE"
          },
          {
            "atomIds": [
              1,
              5
            ],
            "bo": "SINGLE"
          },
          {
            "atomIds": [
              1,
              6
            ],
            "bo": "SINGLE"
          },
          {
            "atomIds": [
              2,
              7
            ],
            "bo": "SINGLE"
          },
          {
            "atomIds": [
              2,
              8
            ],
            "bo": "SINGLE"
          }
        ]
      },
      "vertexId": 355235,
      "buildingBlockId": 64,
      "buildingBlockType": "FRAGMENT",
      "isRCV": false,
      "properties": {
        "ATTACHMENT_POINTS": "1#bridge:0:SINGLE:-1.2321%-0.7501%-0.2550 3#bridge:0:SINGLE:1.2657%-0.6920%-0.2550 ",
        "OLDVERTEXID": 2857
      },
      "uniquefyingPropertyKeys": [],
      "allowedMutationTypes": [
        "DELETE",
        "EXTEND",
        "CHANGEBRANCH",
        "CHANGELINK",
        "ADDLINK",
        "DELETELINK",
        "DELETECHAIN"
      ],
      "vertexType": "MolecularFragment"
    },
    {
      "lstAPs": [
        {
          "id": 629424,
          "atomPositionNumber": 0,
          "atomPositionNumberInMol": -1,
          "apClass": {
            "rule": "ATminus",
            "subClass": 0,
            "bndTyp": "ANY"
          },
          "dirVec": {
            "x": 0.0109,
            "y": -0.0071,
            "z": 0.0026
          }
        }
      ],
      "lstSymAPs": [],
      "mol": {
        "atoms": [
          {
            "elSymbol": "ATM",
            "p3d": {
              "x": -0.0096,
              "y": 0.0045,
              "z": -0.0011
            }
          }
        ],
        "bonds": []
      },
      "vertexId": 355236,
      "buildingBlockId": 79,
      "buildingBlockType": "FRAGMENT",
      "isRCV": true,
      "properties": {
        "ATTACHMENT_POINTS": "1#ATminus:0:ANY:0.0109%-0.0071%0.0026 ",
        "OLDVERTEXID": 354865
      },
      "uniquefyingPropertyKeys": [],
      "allowedMutationTypes": [
        "DELETE",
        "EXTEND",
        "CHANGEBRANCH",
        "CHANGELINK",
        "ADDLINK",
        "DELETELINK",
        "DELETECHAIN"
      ],
      "vertexType": "MolecularFragment"
    },
    {
      "lstAPs": [
        {
          "id": 629425,
          "atomPositionNumber": 0,
          "atomPositionNumberInMol": -1,
          "apClass": {
            "rule": "ATminus",
            "subClass": 0,
            "bndTyp": "ANY"
          },
          "dirVec": {
            "x": 0.0109,
            "y": -0.0071,
            "z": 0.0026
          }
        }
      ],
      "lstSymAPs": [],
      "mol": {
        "atoms": [
          {
            "elSymbol": "ATM",
            "p3d": {
              "x": -0.0096,
              "y": 0.0045,
              "z": -0.0011
            }
          }
        ],
        "bonds": []
      },
      "vertexId": 355237,
      "buildingBlockId": 79,
      "buildingBlockType": "FRAGMENT",
      "isRCV": true,
      "properties": {
        "ATTACHMENT_POINTS": "1#ATminus:0:ANY:0.0109%-0.0071%0.0026 ",
        "OLDVERTEXID": 354864
      },
      "uniquefyingPropertyKeys": [],
      "allowedMutationTypes": [
        "DELETE",
        "EXTEND",
        "CHANGEBRANCH",
        "CHANGELINK",
        "ADDLINK",
        "DELETELINK",
        "DELETECHAIN"
      ],
      "vertexType": "MolecularFragment"
    }
  ],
  "gEdges": [
    {
      "srcAPID": 629410,
      "trgAPID": 629413,
      "bondType": "SINGLE"
    },
    {
      "srcAPID": 629411,
      "trgAPID": 629414,
      "bondType": "SINGLE"
    },
    {
      "srcAPID": 629412,
      "trgAPID": 629415,
      "bondType": "SINGLE"
    },
    {
      "srcAPID": 629408,
      "trgAPID": 629416,
      "bondType": "SINGLE"
    },
    {
      "srcAPID": 629409,
      "trgAPID": 629418,
      "bondType": "SINGLE"
    },
    {
      "srcAPID": 629417,
      "trgAPID": 629420,
      "bondType": "SINGLE"
    },
    {
      "srcAPID": 629419,
      "trgAPID": 629422,
      "bondType": "SINGLE"
    },
    {
      "srcAPID": 629423,
      "trgAPID": 629424,
      "bondType": "SINGLE"
    },
    {
      "srcAPID": 629421,
      "trgAPID": 629425,
      "bondType": "SINGLE"
    }
  ],
  "gRings": [
    {
      "vertices": [
        355230,
        355229,
        355228,
        355233,
        355235,
        355236
      ],
      "bndTyp": "SINGLE"
    },
    {
      "vertices": [
        355231,
        355229,
        355228,
        355232,
        355234,
        355237
      ],
      "bndTyp": "SINGLE"
    }
  ],
  "symVertices": [
    {
      "symIds": [
        355230,
        355231
      ]
    },
    {
      "symIds": [
        355232,
        355233
      ]
    },
    {
      "symIds": [
        355234,
        355235
      ]
    },
    {
      "symIds": [
        355236,
        355237
      ]
    }
  ]
}

> <SMILES>
[Pt]12(C#O)[C]3N(C([H])([H])C([H])([H])C(N3C(C(C([H])([H])O1)([H])[H])([H])[H])([H])[H])C(C(C([H])([H])O2)([H])[H])([H])[H]

$$$$
