M10000125
  CDK     05042200293D

 40 42  0  0  0  0  0  0  0  0999 V2000
   -0.0082   -0.0034   -1.4099 Pt  0  0  0  0  0  0  0  0  0  0  0  0
   -0.0189   -0.0085   -3.3328 C   0  0  0  0  0  0  0  0  0  0  0  0
   -0.0253   -0.0116   -4.4760 O   0  0  0  0  0  0  0  0  0  0  0  0
    0.0029    0.0018    0.5708 N   0  0  0  0  0  0  0  0  0  0  0  0
    1.1136    0.4461    1.2580 C   0  0  0  0  0  0  0  0  0  0  0  0
    1.1447    0.4341    2.6602 C   0  0  0  0  0  0  0  0  0  0  0  0
    2.0397    0.7748    3.1842 H   0  0  0  0  0  0  0  0  0  0  0  0
    0.0185    0.0093    3.3700 C   0  0  0  0  0  0  0  0  0  0  0  0
    0.0246    0.0122    4.4634 H   0  0  0  0  0  0  0  0  0  0  0  0
   -1.1155   -0.4192    2.6751 C   0  0  0  0  0  0  0  0  0  0  0  0
   -2.0046   -0.7572    3.2109 H   0  0  0  0  0  0  0  0  0  0  0  0
   -1.1001   -0.4387    1.2727 C   0  0  0  0  0  0  0  0  0  0  0  0
   -0.7846   -2.9663   -0.4751 S   0  0  0  0  0  0  0  0  0  0  0  0
   -0.1047   -2.0347   -1.6204 O   0  0  0  0  0  0  0  0  0  0  0  0
    0.0122   -2.8106    0.7276 O   0  0  0  0  0  0  0  0  0  0  0  0
   -1.0385   -4.2690   -1.0237 O   0  0  0  0  0  0  0  0  0  0  0  0
   -2.2690   -0.9302    0.5051 C   0  0  0  0  0  0  0  0  0  0  0  0
   -2.2687   -2.0356   -0.2423 C   0  0  0  0  0  0  0  0  0  0  0  0
   -3.1705   -0.3147    0.6394 H   0  0  0  0  0  0  0  0  0  0  0  0
   -3.9739   -3.8684   -0.3667 C   0  0  0  0  0  0  0  0  0  0  0  0
   -3.4861   -2.5437   -0.9500 C   0  0  0  0  0  0  0  0  0  0  0  0
   -4.1502   -3.8067    0.7120 H   0  0  0  0  0  0  0  0  0  0  0  0
   -4.9137   -4.1814   -0.8376 H   0  0  0  0  0  0  0  0  0  0  0  0
   -3.2474   -4.6814   -0.5427 H   0  0  0  0  0  0  0  0  0  0  0  0
   -3.2658   -2.6730   -2.0354 H   0  0  0  0  0  0  0  0  0  0  0  0
   -4.3069   -1.7951   -0.9087 H   0  0  0  0  0  0  0  0  0  0  0  0
    0.7790    2.9643   -0.5000 S   0  0  0  0  0  0  0  0  0  0  0  0
    0.0860    2.0267   -1.6324 O   0  0  0  0  0  0  0  0  0  0  0  0
   -0.0042    2.8157    0.7124 O   0  0  0  0  0  0  0  0  0  0  0  0
    1.0275    4.2637   -1.0585 O   0  0  0  0  0  0  0  0  0  0  0  0
    2.2739    0.9331    0.4747 C   0  0  0  0  0  0  0  0  0  0  0  0
    2.2654    2.0343   -0.2787 C   0  0  0  0  0  0  0  0  0  0  0  0
    3.1768    0.3183    0.6023 H   0  0  0  0  0  0  0  0  0  0  0  0
    3.9712    3.8644   -0.4288 C   0  0  0  0  0  0  0  0  0  0  0  0
    3.4748    2.5386   -1.0025 C   0  0  0  0  0  0  0  0  0  0  0  0
    4.1610    3.8051    0.6479 H   0  0  0  0  0  0  0  0  0  0  0  0
    4.9052    4.1752   -0.9123 H   0  0  0  0  0  0  0  0  0  0  0  0
    3.2432    4.6776   -0.5977 H   0  0  0  0  0  0  0  0  0  0  0  0
    3.2418    2.6652   -2.0856 H   0  0  0  0  0  0  0  0  0  0  0  0
    4.2951    1.7889   -0.9690 H   0  0  0  0  0  0  0  0  0  0  0  0
  2  3  3  0  0  0  0
  1  2  1  0  0  0  0
  6  5  1  0  0  0  0
  7  6  1  0  0  0  0
  8  6  2  0  0  0  0
  9  8  1  0  0  0  0
 10  8  1  0  0  0  0
 10 12  2  0  0  0  0
 11 10  1  0  0  0  0
 12  4  1  0  0  0  0
  4  5  2  0  0  0  0
  1  4  1  0  0  0  0
 13 14  1  0  0  0  0
 15 13  2  0  0  0  0
 16 13  2  0  0  0  0
  1 14  1  0  0  0  0
 17 18  2  0  0  0  0
 17 19  1  0  0  0  0
 13 18  1  0  0  0  0
 20 21  1  0  0  0  0
 20 22  1  0  0  0  0
 20 23  1  0  0  0  0
 20 24  1  0  0  0  0
 21 25  1  0  0  0  0
 21 26  1  0  0  0  0
 18 21  1  0  0  0  0
 27 28  1  0  0  0  0
 29 27  2  0  0  0  0
 30 27  2  0  0  0  0
  1 28  1  0  0  0  0
 31 32  2  0  0  0  0
 31 33  1  0  0  0  0
 27 32  1  0  0  0  0
 34 35  1  0  0  0  0
 34 36  1  0  0  0  0
 34 37  1  0  0  0  0
 34 38  1  0  0  0  0
 35 39  1  0  0  0  0
 35 40  1  0  0  0  0
 32 35  1  0  0  0  0
 12 17  1  0  0  0  0
  5 31  1  0  0  0  0
M  END
> <PM6_ENERGY>
-743.322

> <UID>
IWFHXQPDUVXUPR-IBDDGCEBNA-L

> <FITNESS>
1.14322

> <GCODE>
2115

> <GraphENC>
2115 53427_1_0,53428_64_1,53429_79_1,53430_79_1,53431_77_1,53432_77_1,53433_72_1,53434_72_1,53435_80_1,53436_25_1,53437_80_1,53438_25_1, 53427_2_53428_0_SINGLE_scaff:0_MPyridine:1,53428_1_53429_0_SINGLE_LPyridineAlpha:0_ATplus:0,53428_2_53430_0_SINGLE_LPyridineAlpha:0_ATplus:0,53427_1_53431_0_SINGLE_Xlig:0_Xlig:1,53427_0_53432_0_SINGLE_Xlig:0_Xlig:1,53431_1_53433_1_SINGLE_bridge:1_bridge:0,53432_1_53434_1_SINGLE_bridge:1_bridge:0,53433_0_53435_0_SINGLE_bridge:0_ATminus:0,53433_2_53436_0_SINGLE_SubBridge:0_SubRS:1,53434_0_53437_0_SINGLE_bridge:0_ATminus:0,53434_2_53438_0_SINGLE_SubBridge:0_SubRS:1, DENOPTIMRing [vertices=[53430_79_1, 53428_64_1, 53427_1_0, 53431_77_1, 53433_72_1, 53435_80_1]] DENOPTIMRing [vertices=[53429_79_1, 53428_64_1, 53427_1_0, 53432_77_1, 53434_72_1, 53437_80_1]] SymmetricSet [symIds=[53429, 53430]] SymmetricSet [symIds=[53431, 53432]] SymmetricSet [symIds=[53433, 53434]] SymmetricSet [symIds=[53435, 53437]] SymmetricSet [symIds=[53436, 53438]] 

> <GraphJson>
{
  "graphId": 2115,
  "gVertices": [
    {
      "lstAPs": [
        {
          "id": 89818,
          "atomPositionNumber": 0,
          "atomPositionNumberInMol": -1,
          "apClass": {
            "rule": "Xlig",
            "subClass": 0,
            "bndTyp": "SINGLE"
          },
          "dirVec": {
            "x": -2.3339,
            "y": -0.0087,
            "z": 0.8172
          }
        },
        {
          "id": 89819,
          "atomPositionNumber": 0,
          "atomPositionNumberInMol": -1,
          "apClass": {
            "rule": "Xlig",
            "subClass": 0,
            "bndTyp": "SINGLE"
          },
          "dirVec": {
            "x": 2.336,
            "y": -5.0E-4,
            "z": 0.829
          }
        },
        {
          "id": 89820,
          "atomPositionNumber": 0,
          "atomPositionNumberInMol": -1,
          "apClass": {
            "rule": "scaff",
            "subClass": 0,
            "bndTyp": "SINGLE"
          },
          "dirVec": {
            "x": -0.0095,
            "y": 0.0046,
            "z": -1.7113
          }
        }
      ],
      "lstSymAPs": [
        {
          "symIds": [
            0,
            1
          ]
        }
      ],
      "mol": {
        "atoms": [
          {
            "elSymbol": "Pt",
            "p3d": {
              "x": -0.0098,
              "y": 0.0049,
              "z": 0.6289
            }
          },
          {
            "elSymbol": "C",
            "p3d": {
              "x": -6.0E-4,
              "y": 0.0016,
              "z": 2.5609
            }
          },
          {
            "elSymbol": "O",
            "p3d": {
              "x": 0.0025,
              "y": -0.0041,
              "z": 3.6974
            }
          },
          {
            "elSymbol": "Du",
            "p3d": {
              "x": -0.007,
              "y": 1.0013,
              "z": 0.6372
            }
          },
          {
            "elSymbol": "Du",
            "p3d": {
              "x": -0.0014,
              "y": 0.9902,
              "z": 2.5698
            }
          }
        ],
        "bonds": [
          {
            "atomIds": [
              1,
              2
            ],
            "bo": "TRIPLE"
          },
          {
            "atomIds": [
              0,
              1
            ],
            "bo": "SINGLE"
          },
          {
            "atomIds": [
              3,
              0
            ],
            "bo": "SINGLE"
          },
          {
            "atomIds": [
              4,
              1
            ],
            "bo": "SINGLE"
          }
        ]
      },
      "vertexId": 53427,
      "buildingBlockId": 0,
      "buildingBlockType": "SCAFFOLD",
      "isRCV": false,
      "properties": {
        "ATTACHMENT_POINTS": "1#Xlig:0:SINGLE:-2.3339%-0.0087%0.8172,Xlig:0:SINGLE:2.3360%-0.0005%0.8290,scaff:0:SINGLE:-0.0095%0.0046%-1.7113 ",
        "OLDVERTEXID": 201
      },
      "uniquefyingPropertyKeys": [],
      "allowedMutationTypes": [
        "DELETE",
        "EXTEND",
        "CHANGEBRANCH",
        "CHANGELINK",
        "ADDLINK",
        "DELETELINK",
        "DELETECHAIN"
      ],
      "vertexType": "MolecularFragment"
    },
    {
      "lstAPs": [
        {
          "id": 89821,
          "atomPositionNumber": 0,
          "atomPositionNumberInMol": -1,
          "apClass": {
            "rule": "MPyridine",
            "subClass": 1,
            "bndTyp": "SINGLE"
          },
          "dirVec": {
            "x": -0.009779377457537534,
            "y": 0.004879377457537382,
            "z": 0.4680304204308088
          }
        },
        {
          "id": 89822,
          "atomPositionNumber": 1,
          "atomPositionNumberInMol": -1,
          "apClass": {
            "rule": "LPyridineAlpha",
            "subClass": 0,
            "bndTyp": "SINGLE"
          },
          "dirVec": {
            "x": 1.7498113878580424,
            "y": -1.5425521902462944,
            "z": -1.2670236023275012
          }
        },
        {
          "id": 89823,
          "atomPositionNumber": 8,
          "atomPositionNumberInMol": -1,
          "apClass": {
            "rule": "LPyridineAlpha",
            "subClass": 0,
            "bndTyp": "SINGLE"
          },
          "dirVec": {
            "x": -1.623992272866726,
            "y": 1.694540172820501,
            "z": -1.2840127710767786
          }
        }
      ],
      "lstSymAPs": [
        {
          "symIds": [
            1,
            2
          ]
        }
      ],
      "mol": {
        "atoms": [
          {
            "elSymbol": "N",
            "p3d": {
              "x": -0.009520622542462467,
              "y": 0.004620622542462618,
              "z": -1.5504304204308088
            }
          },
          {
            "elSymbol": "C",
            "p3d": {
              "x": 0.8426955164535905,
              "y": -0.8472127361782159,
              "z": -2.181427719478363
            }
          },
          {
            "elSymbol": "C",
            "p3d": {
              "x": 0.7971687590727337,
              "y": -0.9082893750711706,
              "z": -3.5798092977837723
            }
          },
          {
            "elSymbol": "H",
            "p3d": {
              "x": 1.3486670490833412,
              "y": -1.52302742265968,
              "z": -4.050646274838936
            }
          },
          {
            "elSymbol": "C",
            "p3d": {
              "x": -0.055461761672130454,
              "y": -0.06992844379434703,
              "z": -4.269187919444612
            }
          },
          {
            "elSymbol": "H",
            "p3d": {
              "x": -0.07372803298688399,
              "y": -0.09851265747929987,
              "z": -5.218166473501693
            }
          },
          {
            "elSymbol": "C",
            "p3d": {
              "x": -0.8903705558629028,
              "y": 0.8192168796905219,
              "z": -3.5958046191557655
            }
          },
          {
            "elSymbol": "H",
            "p3d": {
              "x": -1.467637017665257,
              "y": 1.402288830115317,
              "z": -4.075034076416081
            }
          },
          {
            "elSymbol": "C",
            "p3d": {
              "x": -0.856929403375486,
              "y": 0.830711007593109,
              "z": -2.199893416985629
            }
          }
        ],
        "bonds": [
          {
            "atomIds": [
              2,
              1
            ],
            "bo": "SINGLE"
          },
          {
            "atomIds": [
              3,
              2
            ],
            "bo": "SINGLE"
          },
          {
            "atomIds": [
              4,
              2
            ],
            "bo": "DOUBLE"
          },
          {
            "atomIds": [
              5,
              4
            ],
            "bo": "SINGLE"
          },
          {
            "atomIds": [
              6,
              4
            ],
            "bo": "SINGLE"
          },
          {
            "atomIds": [
              6,
              8
            ],
            "bo": "DOUBLE"
          },
          {
            "atomIds": [
              7,
              6
            ],
            "bo": "SINGLE"
          },
          {
            "atomIds": [
              8,
              0
            ],
            "bo": "SINGLE"
          },
          {
            "atomIds": [
              0,
              1
            ],
            "bo": "DOUBLE"
          }
        ]
      },
      "vertexId": 53428,
      "buildingBlockId": 63,
      "buildingBlockType": "FRAGMENT",
      "isRCV": false,
      "properties": {
        "ATTACHMENT_POINTS": "1#MPyridine:1:SINGLE:-0.0098%0.0049%0.4680 2#LPyridineAlpha:0:SINGLE:1.7498%-1.5426%-1.2670 9#LPyridineAlpha:0:SINGLE:-1.6240%1.6945%-1.2840 ",
        "OLDVERTEXID": 202
      },
      "uniquefyingPropertyKeys": [],
      "allowedMutationTypes": [
        "DELETE",
        "EXTEND",
        "CHANGEBRANCH",
        "CHANGELINK",
        "ADDLINK",
        "DELETELINK",
        "DELETECHAIN"
      ],
      "vertexType": "MolecularFragment"
    },
    {
      "lstAPs": [
        {
          "id": 89824,
          "atomPositionNumber": 0,
          "atomPositionNumberInMol": -1,
          "apClass": {
            "rule": "ATplus",
            "subClass": 0,
            "bndTyp": "ANY"
          },
          "dirVec": {
            "x": 1.7498113878580424,
            "y": -1.5425521902462944,
            "z": -1.2670236023275012
          }
        }
      ],
      "lstSymAPs": [],
      "mol": {
        "atoms": [
          {
            "elSymbol": "ATP",
            "p3d": {
              "x": 1.7628208697291199,
              "y": -1.552524462044315,
              "z": -1.2539095954404926
            }
          }
        ],
        "bonds": []
      },
      "vertexId": 53429,
      "buildingBlockId": 78,
      "buildingBlockType": "FRAGMENT",
      "isRCV": true,
      "properties": {
        "ATTACHMENT_POINTS": "1#ATplus:0:ANY:1.7498%-1.5426%-1.2670 ",
        "OLDVERTEXID": 203
      },
      "uniquefyingPropertyKeys": [],
      "allowedMutationTypes": [
        "DELETE",
        "EXTEND",
        "CHANGEBRANCH",
        "CHANGELINK",
        "ADDLINK",
        "DELETELINK",
        "DELETECHAIN"
      ],
      "vertexType": "MolecularFragment"
    },
    {
      "lstAPs": [
        {
          "id": 89825,
          "atomPositionNumber": 0,
          "atomPositionNumberInMol": -1,
          "apClass": {
            "rule": "ATplus",
            "subClass": 0,
            "bndTyp": "ANY"
          },
          "dirVec": {
            "x": -1.623992272866726,
            "y": 1.694540172820501,
            "z": -1.2840127710767786
          }
        }
      ],
      "lstSymAPs": [],
      "mol": {
        "atoms": [
          {
            "elSymbol": "ATP",
            "p3d": {
              "x": -1.634914608334237,
              "y": 1.7068403796281795,
              "z": -1.2709713945994476
            }
          }
        ],
        "bonds": []
      },
      "vertexId": 53430,
      "buildingBlockId": 78,
      "buildingBlockType": "FRAGMENT",
      "isRCV": true,
      "properties": {
        "ATTACHMENT_POINTS": "1#ATplus:0:ANY:-1.6240%1.6945%-1.2840 ",
        "OLDVERTEXID": 204
      },
      "uniquefyingPropertyKeys": [],
      "allowedMutationTypes": [
        "DELETE",
        "EXTEND",
        "CHANGEBRANCH",
        "CHANGELINK",
        "ADDLINK",
        "DELETELINK",
        "DELETECHAIN"
      ],
      "vertexType": "MolecularFragment"
    },
    {
      "lstAPs": [
        {
          "id": 89826,
          "atomPositionNumber": 1,
          "atomPositionNumberInMol": -1,
          "apClass": {
            "rule": "Xlig",
            "subClass": 1,
            "bndTyp": "SINGLE"
          },
          "dirVec": {
            "x": 5.983,
            "y": 5.659,
            "z": 10.7602
          }
        },
        {
          "id": 89827,
          "atomPositionNumber": 0,
          "atomPositionNumberInMol": -1,
          "apClass": {
            "rule": "bridge",
            "subClass": 1,
            "bndTyp": "SINGLE"
          },
          "dirVec": {
            "x": 3.1219,
            "y": 7.0322,
            "z": 12.57
          }
        }
      ],
      "lstSymAPs": [],
      "mol": {
        "atoms": [
          {
            "elSymbol": "S",
            "p3d": {
              "x": 3.289,
              "y": 7.1626,
              "z": 10.7898
            }
          },
          {
            "elSymbol": "O",
            "p3d": {
              "x": 4.7494,
              "y": 7.4238,
              "z": 10.5812
            }
          },
          {
            "elSymbol": "O",
            "p3d": {
              "x": 2.8666,
              "y": 5.9079,
              "z": 10.2063
            }
          },
          {
            "elSymbol": "O",
            "p3d": {
              "x": 2.5225,
              "y": 8.319,
              "z": 10.3914
            }
          }
        ],
        "bonds": [
          {
            "atomIds": [
              0,
              1
            ],
            "bo": "SINGLE"
          },
          {
            "atomIds": [
              2,
              0
            ],
            "bo": "DOUBLE"
          },
          {
            "atomIds": [
              3,
              0
            ],
            "bo": "DOUBLE"
          }
        ]
      },
      "vertexId": 53431,
      "buildingBlockId": 76,
      "buildingBlockType": "FRAGMENT",
      "isRCV": false,
      "properties": {
        "ATTACHMENT_POINTS": "1#bridge:1:SINGLE:3.1219%7.0322%12.5700 2#Xlig:1:SINGLE:5.9830%5.6590%10.7602 ",
        "OLDVERTEXID": 753
      },
      "uniquefyingPropertyKeys": [],
      "allowedMutationTypes": [
        "DELETE",
        "EXTEND",
        "CHANGEBRANCH",
        "CHANGELINK",
        "ADDLINK",
        "DELETELINK",
        "DELETECHAIN"
      ],
      "vertexType": "MolecularFragment"
    },
    {
      "lstAPs": [
        {
          "id": 89828,
          "atomPositionNumber": 1,
          "atomPositionNumberInMol": -1,
          "apClass": {
            "rule": "Xlig",
            "subClass": 1,
            "bndTyp": "SINGLE"
          },
          "dirVec": {
            "x": 5.983,
            "y": 5.659,
            "z": 10.7602
          }
        },
        {
          "id": 89829,
          "atomPositionNumber": 0,
          "atomPositionNumberInMol": -1,
          "apClass": {
            "rule": "bridge",
            "subClass": 1,
            "bndTyp": "SINGLE"
          },
          "dirVec": {
            "x": 3.1219,
            "y": 7.0322,
            "z": 12.57
          }
        }
      ],
      "lstSymAPs": [],
      "mol": {
        "atoms": [
          {
            "elSymbol": "S",
            "p3d": {
              "x": 3.289,
              "y": 7.1626,
              "z": 10.7898
            }
          },
          {
            "elSymbol": "O",
            "p3d": {
              "x": 4.7494,
              "y": 7.4238,
              "z": 10.5812
            }
          },
          {
            "elSymbol": "O",
            "p3d": {
              "x": 2.8666,
              "y": 5.9079,
              "z": 10.2063
            }
          },
          {
            "elSymbol": "O",
            "p3d": {
              "x": 2.5225,
              "y": 8.319,
              "z": 10.3914
            }
          }
        ],
        "bonds": [
          {
            "atomIds": [
              0,
              1
            ],
            "bo": "SINGLE"
          },
          {
            "atomIds": [
              2,
              0
            ],
            "bo": "DOUBLE"
          },
          {
            "atomIds": [
              3,
              0
            ],
            "bo": "DOUBLE"
          }
        ]
      },
      "vertexId": 53432,
      "buildingBlockId": 76,
      "buildingBlockType": "FRAGMENT",
      "isRCV": false,
      "properties": {
        "ATTACHMENT_POINTS": "1#bridge:1:SINGLE:3.1219%7.0322%12.5700 2#Xlig:1:SINGLE:5.9830%5.6590%10.7602 ",
        "OLDVERTEXID": 701
      },
      "uniquefyingPropertyKeys": [],
      "allowedMutationTypes": [
        "DELETE",
        "EXTEND",
        "CHANGEBRANCH",
        "CHANGELINK",
        "ADDLINK",
        "DELETELINK",
        "DELETECHAIN"
      ],
      "vertexType": "MolecularFragment"
    },
    {
      "lstAPs": [
        {
          "id": 89830,
          "atomPositionNumber": 0,
          "atomPositionNumberInMol": -1,
          "apClass": {
            "rule": "bridge",
            "subClass": 0,
            "bndTyp": "SINGLE"
          },
          "dirVec": {
            "x": 1.9789000000000003,
            "y": 0.17000000000000004,
            "z": 0.0
          }
        },
        {
          "id": 89831,
          "atomPositionNumber": 1,
          "atomPositionNumberInMol": -1,
          "apClass": {
            "rule": "bridge",
            "subClass": 0,
            "bndTyp": "SINGLE"
          },
          "dirVec": {
            "x": -0.3006,
            "y": -1.4852,
            "z": 0.0
          }
        },
        {
          "id": 89832,
          "atomPositionNumber": 1,
          "atomPositionNumberInMol": -1,
          "apClass": {
            "rule": "SubBridge",
            "subClass": 0,
            "bndTyp": "SINGLE"
          },
          "dirVec": {
            "x": -1.8343,
            "y": 0.6268,
            "z": 0.0
          }
        }
      ],
      "lstSymAPs": [],
      "mol": {
        "atoms": [
          {
            "elSymbol": "C",
            "p3d": {
              "x": 0.6023,
              "y": 0.7833,
              "z": 0.0
            }
          },
          {
            "elSymbol": "C",
            "p3d": {
              "x": -0.4578,
              "y": 0.0135,
              "z": 0.0
            }
          },
          {
            "elSymbol": "H",
            "p3d": {
              "x": 0.4897,
              "y": 1.8574,
              "z": 0.0
            }
          }
        ],
        "bonds": [
          {
            "atomIds": [
              0,
              1
            ],
            "bo": "DOUBLE"
          },
          {
            "atomIds": [
              0,
              2
            ],
            "bo": "SINGLE"
          }
        ]
      },
      "vertexId": 53433,
      "buildingBlockId": 71,
      "buildingBlockType": "FRAGMENT",
      "isRCV": false,
      "properties": {
        "ATTACHMENT_POINTS": "1#bridge:0:SINGLE:1.9789%0.1700%0.0000 2#bridge:0:SINGLE:-0.3006%-1.4852%0.0000,SubBridge:0:SINGLE:-1.8343%0.6268%0.0000 ",
        "OLDVERTEXID": 22218
      },
      "uniquefyingPropertyKeys": [],
      "allowedMutationTypes": [
        "DELETE",
        "EXTEND",
        "CHANGEBRANCH",
        "CHANGELINK",
        "ADDLINK",
        "DELETELINK",
        "DELETECHAIN"
      ],
      "vertexType": "MolecularFragment"
    },
    {
      "lstAPs": [
        {
          "id": 89833,
          "atomPositionNumber": 0,
          "atomPositionNumberInMol": -1,
          "apClass": {
            "rule": "bridge",
            "subClass": 0,
            "bndTyp": "SINGLE"
          },
          "dirVec": {
            "x": 1.9789000000000003,
            "y": 0.17000000000000004,
            "z": 0.0
          }
        },
        {
          "id": 89834,
          "atomPositionNumber": 1,
          "atomPositionNumberInMol": -1,
          "apClass": {
            "rule": "bridge",
            "subClass": 0,
            "bndTyp": "SINGLE"
          },
          "dirVec": {
            "x": -0.3006,
            "y": -1.4852,
            "z": 0.0
          }
        },
        {
          "id": 89835,
          "atomPositionNumber": 1,
          "atomPositionNumberInMol": -1,
          "apClass": {
            "rule": "SubBridge",
            "subClass": 0,
            "bndTyp": "SINGLE"
          },
          "dirVec": {
            "x": -1.8343,
            "y": 0.6268,
            "z": 0.0
          }
        }
      ],
      "lstSymAPs": [],
      "mol": {
        "atoms": [
          {
            "elSymbol": "C",
            "p3d": {
              "x": 0.6023,
              "y": 0.7833,
              "z": 0.0
            }
          },
          {
            "elSymbol": "C",
            "p3d": {
              "x": -0.4578,
              "y": 0.0135,
              "z": 0.0
            }
          },
          {
            "elSymbol": "H",
            "p3d": {
              "x": 0.4897,
              "y": 1.8574,
              "z": 0.0
            }
          }
        ],
        "bonds": [
          {
            "atomIds": [
              0,
              1
            ],
            "bo": "DOUBLE"
          },
          {
            "atomIds": [
              0,
              2
            ],
            "bo": "SINGLE"
          }
        ]
      },
      "vertexId": 53434,
      "buildingBlockId": 71,
      "buildingBlockType": "FRAGMENT",
      "isRCV": false,
      "properties": {
        "ATTACHMENT_POINTS": "1#bridge:0:SINGLE:1.9789%0.1700%0.0000 2#bridge:0:SINGLE:-0.3006%-1.4852%0.0000,SubBridge:0:SINGLE:-1.8343%0.6268%0.0000 ",
        "OLDVERTEXID": 22444
      },
      "uniquefyingPropertyKeys": [],
      "allowedMutationTypes": [
        "DELETE",
        "EXTEND",
        "CHANGEBRANCH",
        "CHANGELINK",
        "ADDLINK",
        "DELETELINK",
        "DELETECHAIN"
      ],
      "vertexType": "MolecularFragment"
    },
    {
      "lstAPs": [
        {
          "id": 89836,
          "atomPositionNumber": 0,
          "atomPositionNumberInMol": -1,
          "apClass": {
            "rule": "ATminus",
            "subClass": 0,
            "bndTyp": "ANY"
          },
          "dirVec": {
            "x": 0.0109,
            "y": -0.0071,
            "z": 0.0026
          }
        }
      ],
      "lstSymAPs": [],
      "mol": {
        "atoms": [
          {
            "elSymbol": "ATM",
            "p3d": {
              "x": -0.0096,
              "y": 0.0045,
              "z": -0.0011
            }
          }
        ],
        "bonds": []
      },
      "vertexId": 53435,
      "buildingBlockId": 79,
      "buildingBlockType": "FRAGMENT",
      "isRCV": true,
      "properties": {
        "ATTACHMENT_POINTS": "1#ATminus:0:ANY:0.0109%-0.0071%0.0026 ",
        "OLDVERTEXID": 52004
      },
      "uniquefyingPropertyKeys": [],
      "allowedMutationTypes": [
        "DELETE",
        "EXTEND",
        "CHANGEBRANCH",
        "CHANGELINK",
        "ADDLINK",
        "DELETELINK",
        "DELETECHAIN"
      ],
      "vertexType": "MolecularFragment"
    },
    {
      "lstAPs": [
        {
          "id": 89837,
          "atomPositionNumber": 1,
          "atomPositionNumberInMol": -1,
          "apClass": {
            "rule": "SubRS",
            "subClass": 1,
            "bndTyp": "SINGLE"
          },
          "dirVec": {
            "x": 0.2985,
            "y": 0.384,
            "z": -0.6258
          }
        }
      ],
      "lstSymAPs": [],
      "mol": {
        "atoms": [
          {
            "elSymbol": "C",
            "p3d": {
              "x": -1.0244,
              "y": -0.2225,
              "z": 1.3991
            }
          },
          {
            "elSymbol": "C",
            "p3d": {
              "x": 0.3973,
              "y": -0.042,
              "z": 0.8195
            }
          },
          {
            "elSymbol": "H",
            "p3d": {
              "x": -1.5635,
              "y": -0.9908,
              "z": 0.8263
            }
          },
          {
            "elSymbol": "H",
            "p3d": {
              "x": -0.941,
              "y": -0.535,
              "z": 2.446
            }
          },
          {
            "elSymbol": "H",
            "p3d": {
              "x": -1.5586,
              "y": 0.7335,
              "z": 1.3382
            }
          },
          {
            "elSymbol": "H",
            "p3d": {
              "x": 0.9335,
              "y": 0.7221,
              "z": 1.4011
            }
          },
          {
            "elSymbol": "H",
            "p3d": {
              "x": 0.927,
              "y": -1.0102,
              "z": 0.9001
            }
          }
        ],
        "bonds": [
          {
            "atomIds": [
              0,
              1
            ],
            "bo": "SINGLE"
          },
          {
            "atomIds": [
              0,
              2
            ],
            "bo": "SINGLE"
          },
          {
            "atomIds": [
              0,
              3
            ],
            "bo": "SINGLE"
          },
          {
            "atomIds": [
              0,
              4
            ],
            "bo": "SINGLE"
          },
          {
            "atomIds": [
              1,
              5
            ],
            "bo": "SINGLE"
          },
          {
            "atomIds": [
              1,
              6
            ],
            "bo": "SINGLE"
          }
        ]
      },
      "vertexId": 53436,
      "buildingBlockId": 24,
      "buildingBlockType": "FRAGMENT",
      "isRCV": false,
      "properties": {
        "ATTACHMENT_POINTS": "2#SubRS:1:SINGLE:0.2985%0.3840%-0.6258 ",
        "OLDVERTEXID": 52013
      },
      "uniquefyingPropertyKeys": [],
      "allowedMutationTypes": [
        "DELETE",
        "EXTEND",
        "CHANGEBRANCH",
        "CHANGELINK",
        "ADDLINK",
        "DELETELINK",
        "DELETECHAIN"
      ],
      "vertexType": "MolecularFragment"
    },
    {
      "lstAPs": [
        {
          "id": 89838,
          "atomPositionNumber": 0,
          "atomPositionNumberInMol": -1,
          "apClass": {
            "rule": "ATminus",
            "subClass": 0,
            "bndTyp": "ANY"
          },
          "dirVec": {
            "x": 0.0109,
            "y": -0.0071,
            "z": 0.0026
          }
        }
      ],
      "lstSymAPs": [],
      "mol": {
        "atoms": [
          {
            "elSymbol": "ATM",
            "p3d": {
              "x": -0.0096,
              "y": 0.0045,
              "z": -0.0011
            }
          }
        ],
        "bonds": []
      },
      "vertexId": 53437,
      "buildingBlockId": 79,
      "buildingBlockType": "FRAGMENT",
      "isRCV": true,
      "properties": {
        "ATTACHMENT_POINTS": "1#ATminus:0:ANY:0.0109%-0.0071%0.0026 ",
        "OLDVERTEXID": 52956
      },
      "uniquefyingPropertyKeys": [],
      "allowedMutationTypes": [
        "DELETE",
        "EXTEND",
        "CHANGEBRANCH",
        "CHANGELINK",
        "ADDLINK",
        "DELETELINK",
        "DELETECHAIN"
      ],
      "vertexType": "MolecularFragment"
    },
    {
      "lstAPs": [
        {
          "id": 89839,
          "atomPositionNumber": 1,
          "atomPositionNumberInMol": -1,
          "apClass": {
            "rule": "SubRS",
            "subClass": 1,
            "bndTyp": "SINGLE"
          },
          "dirVec": {
            "x": 0.2985,
            "y": 0.384,
            "z": -0.6258
          }
        }
      ],
      "lstSymAPs": [],
      "mol": {
        "atoms": [
          {
            "elSymbol": "C",
            "p3d": {
              "x": -1.0244,
              "y": -0.2225,
              "z": 1.3991
            }
          },
          {
            "elSymbol": "C",
            "p3d": {
              "x": 0.3973,
              "y": -0.042,
              "z": 0.8195
            }
          },
          {
            "elSymbol": "H",
            "p3d": {
              "x": -1.5635,
              "y": -0.9908,
              "z": 0.8263
            }
          },
          {
            "elSymbol": "H",
            "p3d": {
              "x": -0.941,
              "y": -0.535,
              "z": 2.446
            }
          },
          {
            "elSymbol": "H",
            "p3d": {
              "x": -1.5586,
              "y": 0.7335,
              "z": 1.3382
            }
          },
          {
            "elSymbol": "H",
            "p3d": {
              "x": 0.9335,
              "y": 0.7221,
              "z": 1.4011
            }
          },
          {
            "elSymbol": "H",
            "p3d": {
              "x": 0.927,
              "y": -1.0102,
              "z": 0.9001
            }
          }
        ],
        "bonds": [
          {
            "atomIds": [
              0,
              1
            ],
            "bo": "SINGLE"
          },
          {
            "atomIds": [
              0,
              2
            ],
            "bo": "SINGLE"
          },
          {
            "atomIds": [
              0,
              3
            ],
            "bo": "SINGLE"
          },
          {
            "atomIds": [
              0,
              4
            ],
            "bo": "SINGLE"
          },
          {
            "atomIds": [
              1,
              5
            ],
            "bo": "SINGLE"
          },
          {
            "atomIds": [
              1,
              6
            ],
            "bo": "SINGLE"
          }
        ]
      },
      "vertexId": 53438,
      "buildingBlockId": 24,
      "buildingBlockType": "FRAGMENT",
      "isRCV": false,
      "properties": {
        "ATTACHMENT_POINTS": "2#SubRS:1:SINGLE:0.2985%0.3840%-0.6258 ",
        "OLDVERTEXID": 52957
      },
      "uniquefyingPropertyKeys": [],
      "allowedMutationTypes": [
        "DELETE",
        "EXTEND",
        "CHANGEBRANCH",
        "CHANGELINK",
        "ADDLINK",
        "DELETELINK",
        "DELETECHAIN"
      ],
      "vertexType": "MolecularFragment"
    }
  ],
  "gEdges": [
    {
      "srcAPID": 89820,
      "trgAPID": 89821,
      "bondType": "SINGLE"
    },
    {
      "srcAPID": 89822,
      "trgAPID": 89824,
      "bondType": "SINGLE"
    },
    {
      "srcAPID": 89823,
      "trgAPID": 89825,
      "bondType": "SINGLE"
    },
    {
      "srcAPID": 89819,
      "trgAPID": 89826,
      "bondType": "SINGLE"
    },
    {
      "srcAPID": 89818,
      "trgAPID": 89828,
      "bondType": "SINGLE"
    },
    {
      "srcAPID": 89827,
      "trgAPID": 89831,
      "bondType": "SINGLE"
    },
    {
      "srcAPID": 89829,
      "trgAPID": 89834,
      "bondType": "SINGLE"
    },
    {
      "srcAPID": 89830,
      "trgAPID": 89836,
      "bondType": "SINGLE"
    },
    {
      "srcAPID": 89832,
      "trgAPID": 89837,
      "bondType": "SINGLE"
    },
    {
      "srcAPID": 89833,
      "trgAPID": 89838,
      "bondType": "SINGLE"
    },
    {
      "srcAPID": 89835,
      "trgAPID": 89839,
      "bondType": "SINGLE"
    }
  ],
  "gRings": [
    {
      "vertices": [
        53430,
        53428,
        53427,
        53431,
        53433,
        53435
      ],
      "bndTyp": "SINGLE"
    },
    {
      "vertices": [
        53429,
        53428,
        53427,
        53432,
        53434,
        53437
      ],
      "bndTyp": "SINGLE"
    }
  ],
  "symVertices": [
    {
      "symIds": [
        53429,
        53430
      ]
    },
    {
      "symIds": [
        53431,
        53432
      ]
    },
    {
      "symIds": [
        53433,
        53434
      ]
    },
    {
      "symIds": [
        53435,
        53437
      ]
    },
    {
      "symIds": [
        53436,
        53438
      ]
    }
  ]
}

> <SMILES>
[Pt]12(C#O)[N]=3C(=C(C(=C(C3C(=C(S(O1)(=O)=O)C(C([H])([H])[H])([H])[H])[H])[H])[H])[H])C(=C(S(O2)(=O)=O)C(C([H])([H])[H])([H])[H])[H]

$$$$
