M10007484
  CDK     05042201043D

 53 57  0  0  0  0  0  0  0  0999 V2000
   -1.6202    0.0035   -0.0415 Pt  0  0  0  0  0  0  0  0  0  0  0  0
   -3.5501   -0.0202   -0.0700 C   0  0  0  0  0  0  0  0  0  0  0  0
   -4.6931   -0.0354   -0.0869 O   0  0  0  0  0  0  0  0  0  0  0  0
    1.0730    0.9446    0.7558 N   0  0  1  0  0  0  0  0  0  0  0  0
    1.1119   -0.8855   -0.7574 N   0  0  1  0  0  0  0  0  0  0  0  0
    0.4179    0.0233   -0.0101 C   0  0  0  0  0  0  0  0  0  0  0  0
    2.5624    0.9262    0.9401 C   0  0  0  0  0  0  0  0  0  0  0  0
    2.7907    1.1327    2.0129 H   0  0  0  0  0  0  0  0  0  0  0  0
    3.0051    1.7558    0.3409 H   0  0  0  0  0  0  0  0  0  0  0  0
    3.1690   -0.4138    0.5284 C   0  0  0  0  0  0  0  0  0  0  0  0
    2.9427   -1.1942    1.2868 H   0  0  0  0  0  0  0  0  0  0  0  0
    4.2737   -0.3418    0.4914 H   0  0  0  0  0  0  0  0  0  0  0  0
    2.6061   -0.8144   -0.8348 C   0  0  0  0  0  0  0  0  0  0  0  0
    2.8850   -0.0721   -1.6197 H   0  0  0  0  0  0  0  0  0  0  0  0
    3.0223   -1.7955   -1.1540 H   0  0  0  0  0  0  0  0  0  0  0  0
   -1.5939    0.4391   -2.0535 O   0  0  0  0  0  0  0  0  0  0  0  0
   -0.8219   -0.3499   -3.9754 O   0  0  0  0  0  0  0  0  0  0  0  0
   -1.0843   -0.5428   -2.8117 C   0  0  0  0  0  0  0  0  0  0  0  0
    0.5397   -2.0373   -1.5415 C   0  0  2  0  0  0  0  0  0  0  0  0
   -0.9030   -1.8690   -2.0618 C   0  0  2  0  0  0  0  0  0  0  0  0
    0.6163   -3.3284   -0.6965 C   0  0  0  0  0  0  0  0  0  0  0  0
    0.2792   -4.5393   -1.5770 C   0  0  0  0  0  0  0  0  0  0  0  0
   -1.0871   -4.3860   -2.2598 C   0  0  0  0  0  0  0  0  0  0  0  0
   -1.2120   -3.0513   -3.0040 C   0  0  0  0  0  0  0  0  0  0  0  0
    1.2075   -2.1386   -2.4470 H   0  0  0  0  0  0  0  0  0  0  0  0
   -1.6329   -1.9312   -1.2010 H   0  0  0  0  0  0  0  0  0  0  0  0
   -0.0856   -3.2655    0.1610 H   0  0  0  0  0  0  0  0  0  0  0  0
    1.6185   -3.4518   -0.2476 H   0  0  0  0  0  0  0  0  0  0  0  0
    0.2867   -5.4588   -0.9594 H   0  0  0  0  0  0  0  0  0  0  0  0
    1.0670   -4.6826   -2.3420 H   0  0  0  0  0  0  0  0  0  0  0  0
   -1.2487   -5.2227   -2.9668 H   0  0  0  0  0  0  0  0  0  0  0  0
   -1.8929   -4.4710   -1.5038 H   0  0  0  0  0  0  0  0  0  0  0  0
   -0.5372   -3.0235   -3.8838 H   0  0  0  0  0  0  0  0  0  0  0  0
   -2.2335   -2.9386   -3.4183 H   0  0  0  0  0  0  0  0  0  0  0  0
   -1.6396   -0.4236    1.9732 O   0  0  0  0  0  0  0  0  0  0  0  0
   -0.9487    0.4031    3.9106 O   0  0  0  0  0  0  0  0  0  0  0  0
   -1.1798    0.5784    2.7375 C   0  0  0  0  0  0  0  0  0  0  0  0
    0.4425    2.0983    1.4948 C   0  0  2  0  0  0  0  0  0  0  0  0
   -1.0090    1.9012    1.9795 C   0  0  2  0  0  0  0  0  0  0  0  0
    0.5059    3.3720    0.6233 C   0  0  0  0  0  0  0  0  0  0  0  0
    0.1128    4.5907    1.4699 C   0  0  0  0  0  0  0  0  0  0  0  0
   -1.2624    4.4132    2.1288 C   0  0  0  0  0  0  0  0  0  0  0  0
   -1.3694    3.0893    2.8954 C   0  0  0  0  0  0  0  0  0  0  0  0
    1.0804    2.2444    2.4164 H   0  0  0  0  0  0  0  0  0  0  0  0
   -1.7179    1.9376    1.0993 H   0  0  0  0  0  0  0  0  0  0  0  0
   -0.1706    3.2719   -0.2510 H   0  0  0  0  0  0  0  0  0  0  0  0
    1.5163    3.5152    0.1996 H   0  0  0  0  0  0  0  0  0  0  0  0
    0.1063    5.4963    0.8320 H   0  0  0  0  0  0  0  0  0  0  0  0
    0.8799    4.7743    2.2473 H   0  0  0  0  0  0  0  0  0  0  0  0
   -1.4597    5.2583    2.8167 H   0  0  0  0  0  0  0  0  0  0  0  0
   -2.0548    4.4637    1.3555 H   0  0  0  0  0  0  0  0  0  0  0  0
   -0.7141    3.0944    3.7899 H   0  0  0  0  0  0  0  0  0  0  0  0
   -2.3966    2.9571    3.2892 H   0  0  0  0  0  0  0  0  0  0  0  0
  2  3  3  0  0  0  0
  1  2  1  0  0  0  0
  4  6  1  0  0  0  0
  5  6  1  0  0  0  0
  7  4  1  0  0  0  0
  8  7  1  0  0  0  0
  9  7  1  0  0  0  0
 10  7  1  0  0  0  0
 11 10  1  0  0  0  0
 12 10  1  0  0  0  0
 13  5  1  0  0  0  0
 14 13  1  0  0  0  0
 15 13  1  0  0  0  0
 10 13  1  0  0  0  0
  1  6  1  0  0  0  0
 17 18  2  0  0  0  0
 18 16  1  0  0  0  0
  1 16  1  0  0  0  0
 19 20  1  0  0  0  0
 21 22  1  0  0  0  0
 22 23  1  0  0  0  0
 23 24  1  0  0  0  0
 19 21  1  0  0  0  0
 20 24  1  0  0  0  0
 19 25  1  0  0  0  0
 20 26  1  0  0  0  0
 21 27  1  0  0  0  0
 21 28  1  0  0  0  0
 22 29  1  0  0  0  0
 22 30  1  0  0  0  0
 23 31  1  0  0  0  0
 23 32  1  0  0  0  0
 24 33  1  0  0  0  0
 24 34  1  0  0  0  0
 18 20  1  0  0  0  0
 36 37  2  0  0  0  0
 37 35  1  0  0  0  0
  1 35  1  0  0  0  0
 38 39  1  0  0  0  0
 40 41  1  0  0  0  0
 41 42  1  0  0  0  0
 42 43  1  0  0  0  0
 38 40  1  0  0  0  0
 39 43  1  0  0  0  0
 38 44  1  0  0  0  0
 39 45  1  0  0  0  0
 40 46  1  0  0  0  0
 40 47  1  0  0  0  0
 41 48  1  0  0  0  0
 41 49  1  0  0  0  0
 42 50  1  0  0  0  0
 42 51  1  0  0  0  0
 43 52  1  0  0  0  0
 43 53  1  0  0  0  0
 37 39  1  0  0  0  0
  4 38  1  0  0  0  0
  5 19  1  0  0  0  0
M  END
> <PM6_ENERGY>
-754.652

> <UID>
QMGKGMDQDSKFHI-KZBADSCXNA-L

> <FITNESS>
1.14323

> <GCODE>
13012

> <GraphENC>
13012 700641_1_0,700642_57_1,700643_79_1,700644_79_1,700645_76_1,700646_76_1,700647_71_1,700648_71_1,700649_80_1,700650_80_1, 700641_2_700642_2_SINGLE_scaff:0_M6HPyrimidinylidene:1,700642_0_700643_0_SINGLE_L6HPyrimidinylideneSubN:0_ATplus:0,700642_1_700644_0_SINGLE_L6HPyrimidinylideneSubN:0_ATplus:0,700641_1_700645_0_SINGLE_Xlig:0_Xlig:1,700641_0_700646_0_SINGLE_Xlig:0_Xlig:1,700645_1_700647_1_SINGLE_bridge:1_bridge:0,700646_1_700648_1_SINGLE_bridge:1_bridge:0,700647_0_700649_0_SINGLE_bridge:0_ATminus:0,700648_0_700650_0_SINGLE_bridge:0_ATminus:0, DENOPTIMRing [vertices=[700643_79_1, 700642_57_1, 700641_1_0, 700646_76_1, 700648_71_1, 700650_80_1]] DENOPTIMRing [vertices=[700644_79_1, 700642_57_1, 700641_1_0, 700645_76_1, 700647_71_1, 700649_80_1]] SymmetricSet [symIds=[700643, 700644]] SymmetricSet [symIds=[700645, 700646]] SymmetricSet [symIds=[700647, 700648]] SymmetricSet [symIds=[700649, 700650]] 

> <GraphJson>
{
  "graphId": 13012,
  "gVertices": [
    {
      "lstAPs": [
        {
          "id": 1225852,
          "atomPositionNumber": 0,
          "atomPositionNumberInMol": -1,
          "apClass": {
            "rule": "Xlig",
            "subClass": 0,
            "bndTyp": "SINGLE"
          },
          "dirVec": {
            "x": -2.3339,
            "y": -0.0087,
            "z": 0.8172
          }
        },
        {
          "id": 1225853,
          "atomPositionNumber": 0,
          "atomPositionNumberInMol": -1,
          "apClass": {
            "rule": "Xlig",
            "subClass": 0,
            "bndTyp": "SINGLE"
          },
          "dirVec": {
            "x": 2.336,
            "y": -5.0E-4,
            "z": 0.829
          }
        },
        {
          "id": 1225854,
          "atomPositionNumber": 0,
          "atomPositionNumberInMol": -1,
          "apClass": {
            "rule": "scaff",
            "subClass": 0,
            "bndTyp": "SINGLE"
          },
          "dirVec": {
            "x": -0.0095,
            "y": 0.0046,
            "z": -1.7113
          }
        }
      ],
      "lstSymAPs": [
        {
          "symIds": [
            0,
            1
          ]
        }
      ],
      "mol": {
        "atoms": [
          {
            "elSymbol": "Pt",
            "p3d": {
              "x": -0.0098,
              "y": 0.0049,
              "z": 0.6289
            }
          },
          {
            "elSymbol": "C",
            "p3d": {
              "x": -6.0E-4,
              "y": 0.0016,
              "z": 2.5609
            }
          },
          {
            "elSymbol": "O",
            "p3d": {
              "x": 0.0025,
              "y": -0.0041,
              "z": 3.6974
            }
          },
          {
            "elSymbol": "Du",
            "p3d": {
              "x": -0.007,
              "y": 1.0013,
              "z": 0.6372
            }
          },
          {
            "elSymbol": "Du",
            "p3d": {
              "x": -0.0014,
              "y": 0.9902,
              "z": 2.5698
            }
          }
        ],
        "bonds": [
          {
            "atomIds": [
              1,
              2
            ],
            "bo": "TRIPLE"
          },
          {
            "atomIds": [
              0,
              1
            ],
            "bo": "SINGLE"
          },
          {
            "atomIds": [
              3,
              0
            ],
            "bo": "SINGLE"
          },
          {
            "atomIds": [
              4,
              1
            ],
            "bo": "SINGLE"
          }
        ]
      },
      "vertexId": 700641,
      "buildingBlockId": 0,
      "buildingBlockType": "SCAFFOLD",
      "isRCV": false,
      "properties": {
        "ATTACHMENT_POINTS": "1#Xlig:0:SINGLE:-2.3339%-0.0087%0.8172,Xlig:0:SINGLE:2.3360%-0.0005%0.8290,scaff:0:SINGLE:-0.0095%0.0046%-1.7113 ",
        "OLDVERTEXID": 177
      },
      "uniquefyingPropertyKeys": [],
      "allowedMutationTypes": [
        "DELETE",
        "EXTEND",
        "CHANGEBRANCH",
        "CHANGELINK",
        "ADDLINK",
        "DELETELINK",
        "DELETECHAIN"
      ],
      "vertexType": "MolecularFragment"
    },
    {
      "lstAPs": [
        {
          "id": 1225855,
          "atomPositionNumber": 0,
          "atomPositionNumberInMol": -1,
          "apClass": {
            "rule": "L6HPyrimidinylideneSubN",
            "subClass": 0,
            "bndTyp": "SINGLE"
          },
          "dirVec": {
            "x": 1.3883407152187113,
            "y": -1.9305708373750663,
            "z": -1.4728451519136216
          }
        },
        {
          "id": 1225856,
          "atomPositionNumber": 1,
          "atomPositionNumberInMol": -1,
          "apClass": {
            "rule": "L6HPyrimidinylideneSubN",
            "subClass": 0,
            "bndTyp": "SINGLE"
          },
          "dirVec": {
            "x": -1.4116930996412638,
            "y": 1.9634648640961083,
            "z": -1.5026726779359287
          }
        },
        {
          "id": 1225857,
          "atomPositionNumber": 2,
          "atomPositionNumberInMol": -1,
          "apClass": {
            "rule": "M6HPyrimidinylidene",
            "subClass": 1,
            "bndTyp": "SINGLE"
          },
          "dirVec": {
            "x": -0.009774765091213413,
            "y": 0.004874765091213455,
            "z": 0.43205088819242465
          }
        }
      ],
      "lstSymAPs": [
        {
          "symIds": [
            0,
            1
          ]
        }
      ],
      "mol": {
        "atoms": [
          {
            "elSymbol": "N",
            "p3d": {
              "x": 0.652072936281195,
              "y": -0.9267391890325968,
              "z": -2.199970333353834
            }
          },
          {
            "elSymbol": "N",
            "p3d": {
              "x": -0.637827129665478,
              "y": 0.9586684358478516,
              "z": -2.207351248841122
            }
          },
          {
            "elSymbol": "C",
            "p3d": {
              "x": -0.009525234908786586,
              "y": 0.004625234908786545,
              "z": -1.514450888192425
            }
          },
          {
            "elSymbol": "C",
            "p3d": {
              "x": 0.7706099453711337,
              "y": -0.965744069636831,
              "z": -3.6731974905719795
            }
          },
          {
            "elSymbol": "H",
            "p3d": {
              "x": 0.8307372333270738,
              "y": -1.99628974262755,
              "z": -4.008849937491664
            }
          },
          {
            "elSymbol": "H",
            "p3d": {
              "x": 1.6820747151742137,
              "y": -0.4467304034846947,
              "z": -3.993204283867276
            }
          },
          {
            "elSymbol": "C",
            "p3d": {
              "x": -0.4361532308738043,
              "y": -0.3026623235442819,
              "z": -4.271360331659661
            }
          },
          {
            "elSymbol": "H",
            "p3d": {
              "x": -1.3129075687927156,
              "y": -0.9228190365300648,
              "z": -4.107831428162321
            }
          },
          {
            "elSymbol": "H",
            "p3d": {
              "x": -0.2961873164001987,
              "y": -0.20869395263456175,
              "z": -5.354131068267435
            }
          },
          {
            "elSymbol": "C",
            "p3d": {
              "x": -0.6377270980980322,
              "y": 1.061002251967289,
              "z": -3.668972581496101
            }
          },
          {
            "elSymbol": "H",
            "p3d": {
              "x": 0.15771643881518566,
              "y": 1.7178324152794513,
              "z": -4.003843311997157
            }
          },
          {
            "elSymbol": "H",
            "p3d": {
              "x": -1.5761233211679573,
              "y": 1.4843624537484181,
              "z": -4.01173595187856
            }
          }
        ],
        "bonds": [
          {
            "atomIds": [
              0,
              2
            ],
            "bo": "SINGLE"
          },
          {
            "atomIds": [
              1,
              2
            ],
            "bo": "SINGLE"
          },
          {
            "atomIds": [
              3,
              0
            ],
            "bo": "SINGLE"
          },
          {
            "atomIds": [
              4,
              3
            ],
            "bo": "SINGLE"
          },
          {
            "atomIds": [
              5,
              3
            ],
            "bo": "SINGLE"
          },
          {
            "atomIds": [
              6,
              3
            ],
            "bo": "SINGLE"
          },
          {
            "atomIds": [
              7,
              6
            ],
            "bo": "SINGLE"
          },
          {
            "atomIds": [
              8,
              6
            ],
            "bo": "SINGLE"
          },
          {
            "atomIds": [
              9,
              1
            ],
            "bo": "SINGLE"
          },
          {
            "atomIds": [
              10,
              9
            ],
            "bo": "SINGLE"
          },
          {
            "atomIds": [
              11,
              9
            ],
            "bo": "SINGLE"
          },
          {
            "atomIds": [
              6,
              9
            ],
            "bo": "SINGLE"
          }
        ]
      },
      "vertexId": 700642,
      "buildingBlockId": 56,
      "buildingBlockType": "FRAGMENT",
      "isRCV": false,
      "properties": {
        "ATTACHMENT_POINTS": "1#L6HPyrimidinylideneSubN:0:SINGLE:1.3883%-1.9306%-1.4728 2#L6HPyrimidinylideneSubN:0:SINGLE:-1.4117%1.9635%-1.5027 3#M6HPyrimidinylidene:1:SINGLE:-0.0098%0.0049%0.4321 ",
        "OLDVERTEXID": 178
      },
      "uniquefyingPropertyKeys": [],
      "allowedMutationTypes": [
        "DELETE",
        "EXTEND",
        "CHANGEBRANCH",
        "CHANGELINK",
        "ADDLINK",
        "DELETELINK",
        "DELETECHAIN"
      ],
      "vertexType": "MolecularFragment"
    },
    {
      "lstAPs": [
        {
          "id": 1225858,
          "atomPositionNumber": 0,
          "atomPositionNumberInMol": -1,
          "apClass": {
            "rule": "ATplus",
            "subClass": 0,
            "bndTyp": "ANY"
          },
          "dirVec": {
            "x": 1.3883407152187113,
            "y": -1.930570837375066,
            "z": -1.4728451519136216
          }
        }
      ],
      "lstSymAPs": [],
      "mol": {
        "atoms": [
          {
            "elSymbol": "ATP",
            "p3d": {
              "x": 1.3990613300044117,
              "y": -1.9451873841253586,
              "z": -1.4622576602506672
            }
          }
        ],
        "bonds": []
      },
      "vertexId": 700643,
      "buildingBlockId": 78,
      "buildingBlockType": "FRAGMENT",
      "isRCV": true,
      "properties": {
        "ATTACHMENT_POINTS": "1#ATplus:0:ANY:1.3883%-1.9306%-1.4728 ",
        "OLDVERTEXID": 179
      },
      "uniquefyingPropertyKeys": [],
      "allowedMutationTypes": [
        "DELETE",
        "EXTEND",
        "CHANGEBRANCH",
        "CHANGELINK",
        "ADDLINK",
        "DELETELINK",
        "DELETECHAIN"
      ],
      "vertexType": "MolecularFragment"
    },
    {
      "lstAPs": [
        {
          "id": 1225859,
          "atomPositionNumber": 0,
          "atomPositionNumberInMol": -1,
          "apClass": {
            "rule": "ATplus",
            "subClass": 0,
            "bndTyp": "ANY"
          },
          "dirVec": {
            "x": -1.4116930996412638,
            "y": 1.963464864096108,
            "z": -1.5026726779359287
          }
        }
      ],
      "lstSymAPs": [],
      "mol": {
        "atoms": [
          {
            "elSymbol": "ATP",
            "p3d": {
              "x": -1.422889814938761,
              "y": 1.97800280732598,
              "z": -1.4924770036967328
            }
          }
        ],
        "bonds": []
      },
      "vertexId": 700644,
      "buildingBlockId": 78,
      "buildingBlockType": "FRAGMENT",
      "isRCV": true,
      "properties": {
        "ATTACHMENT_POINTS": "1#ATplus:0:ANY:-1.4117%1.9635%-1.5027 ",
        "OLDVERTEXID": 180
      },
      "uniquefyingPropertyKeys": [],
      "allowedMutationTypes": [
        "DELETE",
        "EXTEND",
        "CHANGEBRANCH",
        "CHANGELINK",
        "ADDLINK",
        "DELETELINK",
        "DELETECHAIN"
      ],
      "vertexType": "MolecularFragment"
    },
    {
      "lstAPs": [
        {
          "id": 1225860,
          "atomPositionNumber": 0,
          "atomPositionNumberInMol": -1,
          "apClass": {
            "rule": "Xlig",
            "subClass": 1,
            "bndTyp": "SINGLE"
          },
          "dirVec": {
            "x": 2.9612,
            "y": 0.482,
            "z": 3.1597
          }
        },
        {
          "id": 1225861,
          "atomPositionNumber": 2,
          "atomPositionNumberInMol": -1,
          "apClass": {
            "rule": "bridge",
            "subClass": 1,
            "bndTyp": "SINGLE"
          },
          "dirVec": {
            "x": 0.31479999999999997,
            "y": 0.7222,
            "z": 2.0817
          }
        }
      ],
      "lstSymAPs": [],
      "mol": {
        "atoms": [
          {
            "elSymbol": "O",
            "p3d": {
              "x": 2.5349,
              "y": 1.3185,
              "z": 1.3621
            }
          },
          {
            "elSymbol": "O",
            "p3d": {
              "x": 0.8537,
              "y": 1.7439,
              "z": 0.0154
            }
          },
          {
            "elSymbol": "C",
            "p3d": {
              "x": 1.2704,
              "y": 1.2787,
              "z": 1.0674
            }
          }
        ],
        "bonds": [
          {
            "atomIds": [
              1,
              2
            ],
            "bo": "DOUBLE"
          },
          {
            "atomIds": [
              2,
              0
            ],
            "bo": "SINGLE"
          }
        ]
      },
      "vertexId": 700645,
      "buildingBlockId": 75,
      "buildingBlockType": "FRAGMENT",
      "isRCV": false,
      "properties": {
        "ATTACHMENT_POINTS": "1#Xlig:1:SINGLE:2.9612%0.4820%3.1597 3#bridge:1:SINGLE:0.3148%0.7222%2.0817 ",
        "OLDVERTEXID": 1788
      },
      "uniquefyingPropertyKeys": [],
      "allowedMutationTypes": [
        "DELETE",
        "EXTEND",
        "CHANGEBRANCH",
        "CHANGELINK",
        "ADDLINK",
        "DELETELINK",
        "DELETECHAIN"
      ],
      "vertexType": "MolecularFragment"
    },
    {
      "lstAPs": [
        {
          "id": 1225862,
          "atomPositionNumber": 0,
          "atomPositionNumberInMol": -1,
          "apClass": {
            "rule": "Xlig",
            "subClass": 1,
            "bndTyp": "SINGLE"
          },
          "dirVec": {
            "x": 2.9612,
            "y": 0.482,
            "z": 3.1597
          }
        },
        {
          "id": 1225863,
          "atomPositionNumber": 2,
          "atomPositionNumberInMol": -1,
          "apClass": {
            "rule": "bridge",
            "subClass": 1,
            "bndTyp": "SINGLE"
          },
          "dirVec": {
            "x": 0.31479999999999997,
            "y": 0.7222,
            "z": 2.0817
          }
        }
      ],
      "lstSymAPs": [],
      "mol": {
        "atoms": [
          {
            "elSymbol": "O",
            "p3d": {
              "x": 2.5349,
              "y": 1.3185,
              "z": 1.3621
            }
          },
          {
            "elSymbol": "O",
            "p3d": {
              "x": 0.8537,
              "y": 1.7439,
              "z": 0.0154
            }
          },
          {
            "elSymbol": "C",
            "p3d": {
              "x": 1.2704,
              "y": 1.2787,
              "z": 1.0674
            }
          }
        ],
        "bonds": [
          {
            "atomIds": [
              1,
              2
            ],
            "bo": "DOUBLE"
          },
          {
            "atomIds": [
              2,
              0
            ],
            "bo": "SINGLE"
          }
        ]
      },
      "vertexId": 700646,
      "buildingBlockId": 75,
      "buildingBlockType": "FRAGMENT",
      "isRCV": false,
      "properties": {
        "ATTACHMENT_POINTS": "1#Xlig:1:SINGLE:2.9612%0.4820%3.1597 3#bridge:1:SINGLE:0.3148%0.7222%2.0817 ",
        "OLDVERTEXID": 1766
      },
      "uniquefyingPropertyKeys": [],
      "allowedMutationTypes": [
        "DELETE",
        "EXTEND",
        "CHANGEBRANCH",
        "CHANGELINK",
        "ADDLINK",
        "DELETELINK",
        "DELETECHAIN"
      ],
      "vertexType": "MolecularFragment"
    },
    {
      "lstAPs": [
        {
          "id": 1225864,
          "atomPositionNumber": 0,
          "atomPositionNumberInMol": -1,
          "apClass": {
            "rule": "bridge",
            "subClass": 0,
            "bndTyp": "SINGLE"
          },
          "dirVec": {
            "x": 0.6064,
            "y": 0.7242,
            "z": -1.2721
          }
        },
        {
          "id": 1225865,
          "atomPositionNumber": 1,
          "atomPositionNumberInMol": -1,
          "apClass": {
            "rule": "bridge",
            "subClass": 0,
            "bndTyp": "SINGLE"
          },
          "dirVec": {
            "x": -0.30759999999999993,
            "y": -1.2087,
            "z": 0.009700000000000042
          }
        }
      ],
      "lstSymAPs": [
        {
          "symIds": [
            0,
            1
          ]
        }
      ],
      "mol": {
        "atoms": [
          {
            "elSymbol": "C",
            "p3d": {
              "x": 1.4767,
              "y": 0.4111,
              "z": -0.0358
            }
          },
          {
            "elSymbol": "C",
            "p3d": {
              "x": 0.4613,
              "y": -0.2385,
              "z": 0.9321
            }
          },
          {
            "elSymbol": "C",
            "p3d": {
              "x": 2.2309,
              "y": 1.5817,
              "z": 0.6566
            }
          },
          {
            "elSymbol": "C",
            "p3d": {
              "x": 2.9447,
              "y": 1.0663,
              "z": 1.9414
            }
          },
          {
            "elSymbol": "C",
            "p3d": {
              "x": 1.9846,
              "y": 0.3014,
              "z": 2.9005
            }
          },
          {
            "elSymbol": "C",
            "p3d": {
              "x": 1.1795,
              "y": -0.8206,
              "z": 2.1815
            }
          },
          {
            "elSymbol": "H",
            "p3d": {
              "x": 2.2245,
              "y": -0.3328,
              "z": -0.3416
            }
          },
          {
            "elSymbol": "H",
            "p3d": {
              "x": -0.2539,
              "y": 0.5182,
              "z": 1.28
            }
          },
          {
            "elSymbol": "H",
            "p3d": {
              "x": 1.5281,
              "y": 2.3785,
              "z": 0.9216
            }
          },
          {
            "elSymbol": "H",
            "p3d": {
              "x": 2.9736,
              "y": 1.9987,
              "z": -0.0312
            }
          },
          {
            "elSymbol": "H",
            "p3d": {
              "x": 3.3845,
              "y": 1.9153,
              "z": 2.4737
            }
          },
          {
            "elSymbol": "H",
            "p3d": {
              "x": 3.763,
              "y": 0.3987,
              "z": 1.6524
            }
          },
          {
            "elSymbol": "H",
            "p3d": {
              "x": 2.5686,
              "y": -0.1375,
              "z": 3.7143
            }
          },
          {
            "elSymbol": "H",
            "p3d": {
              "x": 1.2863,
              "y": 1.0176,
              "z": 3.3441
            }
          },
          {
            "elSymbol": "H",
            "p3d": {
              "x": 1.8581,
              "y": -1.6264,
              "z": 1.8862
            }
          },
          {
            "elSymbol": "H",
            "p3d": {
              "x": 0.4395,
              "y": -1.2349,
              "z": 2.8715
            }
          }
        ],
        "bonds": [
          {
            "atomIds": [
              0,
              1
            ],
            "bo": "SINGLE"
          },
          {
            "atomIds": [
              2,
              3
            ],
            "bo": "SINGLE"
          },
          {
            "atomIds": [
              3,
              4
            ],
            "bo": "SINGLE"
          },
          {
            "atomIds": [
              4,
              5
            ],
            "bo": "SINGLE"
          },
          {
            "atomIds": [
              0,
              2
            ],
            "bo": "SINGLE"
          },
          {
            "atomIds": [
              1,
              5
            ],
            "bo": "SINGLE"
          },
          {
            "atomIds": [
              0,
              6
            ],
            "bo": "SINGLE"
          },
          {
            "atomIds": [
              1,
              7
            ],
            "bo": "SINGLE"
          },
          {
            "atomIds": [
              2,
              8
            ],
            "bo": "SINGLE"
          },
          {
            "atomIds": [
              2,
              9
            ],
            "bo": "SINGLE"
          },
          {
            "atomIds": [
              3,
              10
            ],
            "bo": "SINGLE"
          },
          {
            "atomIds": [
              3,
              11
            ],
            "bo": "SINGLE"
          },
          {
            "atomIds": [
              4,
              12
            ],
            "bo": "SINGLE"
          },
          {
            "atomIds": [
              4,
              13
            ],
            "bo": "SINGLE"
          },
          {
            "atomIds": [
              5,
              14
            ],
            "bo": "SINGLE"
          },
          {
            "atomIds": [
              5,
              15
            ],
            "bo": "SINGLE"
          }
        ]
      },
      "vertexId": 700647,
      "buildingBlockId": 70,
      "buildingBlockType": "FRAGMENT",
      "isRCV": false,
      "properties": {
        "ATTACHMENT_POINTS": "1#bridge:0:SINGLE:0.6064%0.7242%-1.2721 2#bridge:0:SINGLE:-0.3076%-1.2087%0.0097 ",
        "OLDVERTEXID": 3760
      },
      "uniquefyingPropertyKeys": [],
      "allowedMutationTypes": [
        "DELETE",
        "EXTEND",
        "CHANGEBRANCH",
        "CHANGELINK",
        "ADDLINK",
        "DELETELINK",
        "DELETECHAIN"
      ],
      "vertexType": "MolecularFragment"
    },
    {
      "lstAPs": [
        {
          "id": 1225866,
          "atomPositionNumber": 0,
          "atomPositionNumberInMol": -1,
          "apClass": {
            "rule": "bridge",
            "subClass": 0,
            "bndTyp": "SINGLE"
          },
          "dirVec": {
            "x": 0.6064,
            "y": 0.7242,
            "z": -1.2721
          }
        },
        {
          "id": 1225867,
          "atomPositionNumber": 1,
          "atomPositionNumberInMol": -1,
          "apClass": {
            "rule": "bridge",
            "subClass": 0,
            "bndTyp": "SINGLE"
          },
          "dirVec": {
            "x": -0.30759999999999993,
            "y": -1.2087,
            "z": 0.009700000000000042
          }
        }
      ],
      "lstSymAPs": [
        {
          "symIds": [
            0,
            1
          ]
        }
      ],
      "mol": {
        "atoms": [
          {
            "elSymbol": "C",
            "p3d": {
              "x": 1.4767,
              "y": 0.4111,
              "z": -0.0358
            }
          },
          {
            "elSymbol": "C",
            "p3d": {
              "x": 0.4613,
              "y": -0.2385,
              "z": 0.9321
            }
          },
          {
            "elSymbol": "C",
            "p3d": {
              "x": 2.2309,
              "y": 1.5817,
              "z": 0.6566
            }
          },
          {
            "elSymbol": "C",
            "p3d": {
              "x": 2.9447,
              "y": 1.0663,
              "z": 1.9414
            }
          },
          {
            "elSymbol": "C",
            "p3d": {
              "x": 1.9846,
              "y": 0.3014,
              "z": 2.9005
            }
          },
          {
            "elSymbol": "C",
            "p3d": {
              "x": 1.1795,
              "y": -0.8206,
              "z": 2.1815
            }
          },
          {
            "elSymbol": "H",
            "p3d": {
              "x": 2.2245,
              "y": -0.3328,
              "z": -0.3416
            }
          },
          {
            "elSymbol": "H",
            "p3d": {
              "x": -0.2539,
              "y": 0.5182,
              "z": 1.28
            }
          },
          {
            "elSymbol": "H",
            "p3d": {
              "x": 1.5281,
              "y": 2.3785,
              "z": 0.9216
            }
          },
          {
            "elSymbol": "H",
            "p3d": {
              "x": 2.9736,
              "y": 1.9987,
              "z": -0.0312
            }
          },
          {
            "elSymbol": "H",
            "p3d": {
              "x": 3.3845,
              "y": 1.9153,
              "z": 2.4737
            }
          },
          {
            "elSymbol": "H",
            "p3d": {
              "x": 3.763,
              "y": 0.3987,
              "z": 1.6524
            }
          },
          {
            "elSymbol": "H",
            "p3d": {
              "x": 2.5686,
              "y": -0.1375,
              "z": 3.7143
            }
          },
          {
            "elSymbol": "H",
            "p3d": {
              "x": 1.2863,
              "y": 1.0176,
              "z": 3.3441
            }
          },
          {
            "elSymbol": "H",
            "p3d": {
              "x": 1.8581,
              "y": -1.6264,
              "z": 1.8862
            }
          },
          {
            "elSymbol": "H",
            "p3d": {
              "x": 0.4395,
              "y": -1.2349,
              "z": 2.8715
            }
          }
        ],
        "bonds": [
          {
            "atomIds": [
              0,
              1
            ],
            "bo": "SINGLE"
          },
          {
            "atomIds": [
              2,
              3
            ],
            "bo": "SINGLE"
          },
          {
            "atomIds": [
              3,
              4
            ],
            "bo": "SINGLE"
          },
          {
            "atomIds": [
              4,
              5
            ],
            "bo": "SINGLE"
          },
          {
            "atomIds": [
              0,
              2
            ],
            "bo": "SINGLE"
          },
          {
            "atomIds": [
              1,
              5
            ],
            "bo": "SINGLE"
          },
          {
            "atomIds": [
              0,
              6
            ],
            "bo": "SINGLE"
          },
          {
            "atomIds": [
              1,
              7
            ],
            "bo": "SINGLE"
          },
          {
            "atomIds": [
              2,
              8
            ],
            "bo": "SINGLE"
          },
          {
            "atomIds": [
              2,
              9
            ],
            "bo": "SINGLE"
          },
          {
            "atomIds": [
              3,
              10
            ],
            "bo": "SINGLE"
          },
          {
            "atomIds": [
              3,
              11
            ],
            "bo": "SINGLE"
          },
          {
            "atomIds": [
              4,
              12
            ],
            "bo": "SINGLE"
          },
          {
            "atomIds": [
              4,
              13
            ],
            "bo": "SINGLE"
          },
          {
            "atomIds": [
              5,
              14
            ],
            "bo": "SINGLE"
          },
          {
            "atomIds": [
              5,
              15
            ],
            "bo": "SINGLE"
          }
        ]
      },
      "vertexId": 700648,
      "buildingBlockId": 70,
      "buildingBlockType": "FRAGMENT",
      "isRCV": false,
      "properties": {
        "ATTACHMENT_POINTS": "1#bridge:0:SINGLE:0.6064%0.7242%-1.2721 2#bridge:0:SINGLE:-0.3076%-1.2087%0.0097 ",
        "OLDVERTEXID": 3990
      },
      "uniquefyingPropertyKeys": [],
      "allowedMutationTypes": [
        "DELETE",
        "EXTEND",
        "CHANGEBRANCH",
        "CHANGELINK",
        "ADDLINK",
        "DELETELINK",
        "DELETECHAIN"
      ],
      "vertexType": "MolecularFragment"
    },
    {
      "lstAPs": [
        {
          "id": 1225868,
          "atomPositionNumber": 0,
          "atomPositionNumberInMol": -1,
          "apClass": {
            "rule": "ATminus",
            "subClass": 0,
            "bndTyp": "ANY"
          },
          "dirVec": {
            "x": 0.0109,
            "y": -0.0071,
            "z": 0.0026
          }
        }
      ],
      "lstSymAPs": [],
      "mol": {
        "atoms": [
          {
            "elSymbol": "ATM",
            "p3d": {
              "x": -0.0096,
              "y": 0.0045,
              "z": -0.0011
            }
          }
        ],
        "bonds": []
      },
      "vertexId": 700649,
      "buildingBlockId": 79,
      "buildingBlockType": "FRAGMENT",
      "isRCV": true,
      "properties": {
        "ATTACHMENT_POINTS": "1#ATminus:0:ANY:0.0109%-0.0071%0.0026 ",
        "OLDVERTEXID": 700232
      },
      "uniquefyingPropertyKeys": [],
      "allowedMutationTypes": [
        "DELETE",
        "EXTEND",
        "CHANGEBRANCH",
        "CHANGELINK",
        "ADDLINK",
        "DELETELINK",
        "DELETECHAIN"
      ],
      "vertexType": "MolecularFragment"
    },
    {
      "lstAPs": [
        {
          "id": 1225869,
          "atomPositionNumber": 0,
          "atomPositionNumberInMol": -1,
          "apClass": {
            "rule": "ATminus",
            "subClass": 0,
            "bndTyp": "ANY"
          },
          "dirVec": {
            "x": 0.0109,
            "y": -0.0071,
            "z": 0.0026
          }
        }
      ],
      "lstSymAPs": [],
      "mol": {
        "atoms": [
          {
            "elSymbol": "ATM",
            "p3d": {
              "x": -0.0096,
              "y": 0.0045,
              "z": -0.0011
            }
          }
        ],
        "bonds": []
      },
      "vertexId": 700650,
      "buildingBlockId": 79,
      "buildingBlockType": "FRAGMENT",
      "isRCV": true,
      "properties": {
        "ATTACHMENT_POINTS": "1#ATminus:0:ANY:0.0109%-0.0071%0.0026 ",
        "OLDVERTEXID": 700233
      },
      "uniquefyingPropertyKeys": [],
      "allowedMutationTypes": [
        "DELETE",
        "EXTEND",
        "CHANGEBRANCH",
        "CHANGELINK",
        "ADDLINK",
        "DELETELINK",
        "DELETECHAIN"
      ],
      "vertexType": "MolecularFragment"
    }
  ],
  "gEdges": [
    {
      "srcAPID": 1225854,
      "trgAPID": 1225857,
      "bondType": "SINGLE"
    },
    {
      "srcAPID": 1225855,
      "trgAPID": 1225858,
      "bondType": "SINGLE"
    },
    {
      "srcAPID": 1225856,
      "trgAPID": 1225859,
      "bondType": "SINGLE"
    },
    {
      "srcAPID": 1225853,
      "trgAPID": 1225860,
      "bondType": "SINGLE"
    },
    {
      "srcAPID": 1225852,
      "trgAPID": 1225862,
      "bondType": "SINGLE"
    },
    {
      "srcAPID": 1225861,
      "trgAPID": 1225865,
      "bondType": "SINGLE"
    },
    {
      "srcAPID": 1225863,
      "trgAPID": 1225867,
      "bondType": "SINGLE"
    },
    {
      "srcAPID": 1225864,
      "trgAPID": 1225868,
      "bondType": "SINGLE"
    },
    {
      "srcAPID": 1225866,
      "trgAPID": 1225869,
      "bondType": "SINGLE"
    }
  ],
  "gRings": [
    {
      "vertices": [
        700643,
        700642,
        700641,
        700646,
        700648,
        700650
      ],
      "bndTyp": "SINGLE"
    },
    {
      "vertices": [
        700644,
        700642,
        700641,
        700645,
        700647,
        700649
      ],
      "bndTyp": "SINGLE"
    }
  ],
  "symVertices": [
    {
      "symIds": [
        700643,
        700644
      ]
    },
    {
      "symIds": [
        700645,
        700646
      ]
    },
    {
      "symIds": [
        700647,
        700648
      ]
    },
    {
      "symIds": [
        700649,
        700650
      ]
    }
  ]
}

> <SMILES>
[Pt]12(C#O)[C]3N(C([H])([H])C([H])([H])C(N3C4(C(C(C(C(C4([H])[H])([H])[H])([H])[H])([H])[H])([H])C(=O)O1)[H])([H])[H])C5(C(C(C(C(C5([H])[H])([H])[H])([H])[H])([H])[H])([H])C(=O)O2)[H]

$$$$
