M10012799
  CDK     05042201263D

 20 22  0  0  0  0  0  0  0  0999 V2000
    0.0152   -0.0002   -1.9978 Pt  0  0  0  0  0  0  0  0  0  0  0  0
    0.0301   -0.0001   -3.9043 C   0  0  0  0  0  0  0  0  0  0  0  0
    0.0395    0.0003   -5.0514 O   0  0  0  0  0  0  0  0  0  0  0  0
    0.0006    0.0000   -0.0934 N   0  0  0  0  0  0  0  0  0  0  0  0
    0.0012    1.2124    0.5485 C   0  0  0  0  0  0  0  0  0  0  0  0
   -0.0095    1.2225    1.9472 C   0  0  0  0  0  0  0  0  0  0  0  0
   -0.0093    2.1675    2.4909 H   0  0  0  0  0  0  0  0  0  0  0  0
   -0.0204    0.0001    2.6352 C   0  0  0  0  0  0  0  0  0  0  0  0
   -0.0288    0.0001    3.7290 H   0  0  0  0  0  0  0  0  0  0  0  0
   -0.0207   -1.2223    1.9472 C   0  0  0  0  0  0  0  0  0  0  0  0
   -0.0292   -2.1673    2.4910 H   0  0  0  0  0  0  0  0  0  0  0  0
   -0.0099   -1.2124    0.5486 C   0  0  0  0  0  0  0  0  0  0  0  0
    0.0226    2.0497   -1.7651 O   0  0  0  0  0  0  0  0  0  0  0  0
    0.0141    2.4010   -0.4033 C   0  0  0  0  0  0  0  0  0  0  0  0
    0.9271    3.0155   -0.2317 H   0  0  0  0  0  0  0  0  0  0  0  0
   -0.8953    3.0244   -0.2454 H   0  0  0  0  0  0  0  0  0  0  0  0
    0.0038   -2.0500   -1.7650 O   0  0  0  0  0  0  0  0  0  0  0  0
   -0.0079   -2.4011   -0.4032 C   0  0  0  0  0  0  0  0  0  0  0  0
   -0.9230   -3.0161   -0.2453 H   0  0  0  0  0  0  0  0  0  0  0  0
    0.8994   -3.0240   -0.2316 H   0  0  0  0  0  0  0  0  0  0  0  0
  2  3  3  0  0  0  0
  1  2  1  0  0  0  0
  6  5  1  0  0  0  0
  7  6  1  0  0  0  0
  8  6  2  0  0  0  0
  9  8  1  0  0  0  0
 10  8  1  0  0  0  0
 10 12  2  0  0  0  0
 11 10  1  0  0  0  0
 12  4  1  0  0  0  0
  4  5  2  0  0  0  0
  1  4  1  0  0  0  0
  1 13  1  0  0  0  0
 14 15  1  0  0  0  0
 14 16  1  0  0  0  0
 13 14  1  0  0  0  0
  1 17  1  0  0  0  0
 18 19  1  0  0  0  0
 18 20  1  0  0  0  0
 17 18  1  0  0  0  0
 12 18  1  0  0  0  0
  5 14  1  0  0  0  0
M  END
> <PM6_ENERGY>
-124.400

> <UID>
LOKVMJYBQZVZPZ-IYXCUADNNA-N

> <FITNESS>
1.14714

> <GCODE>
20969

> <GraphENC>
20969 1174741_1_0,1174742_64_1,1174743_79_1,1174744_79_1,1174745_73_1,1174746_73_1,1174747_67_1,1174748_67_1,1174749_80_1,1174750_80_1, 1174741_2_1174742_0_SINGLE_scaff:0_MPyridine:1,1174742_1_1174743_0_SINGLE_LPyridineAlpha:0_ATplus:0,1174742_2_1174744_0_SINGLE_LPyridineAlpha:0_ATplus:0,1174741_1_1174745_0_SINGLE_Xlig:0_Xlig:1,1174741_0_1174746_0_SINGLE_Xlig:0_Xlig:1,1174745_1_1174747_0_SINGLE_bridge:1_bridge:0,1174746_1_1174748_0_SINGLE_bridge:1_bridge:0,1174747_1_1174749_0_SINGLE_bridge:0_ATminus:0,1174748_1_1174750_0_SINGLE_bridge:0_ATminus:0, DENOPTIMRing [vertices=[1174743_79_1, 1174742_64_1, 1174741_1_0, 1174745_73_1, 1174747_67_1, 1174749_80_1]] DENOPTIMRing [vertices=[1174744_79_1, 1174742_64_1, 1174741_1_0, 1174746_73_1, 1174748_67_1, 1174750_80_1]] SymmetricSet [symIds=[1174743, 1174744]] SymmetricSet [symIds=[1174745, 1174746]] SymmetricSet [symIds=[1174747, 1174748]] SymmetricSet [symIds=[1174749, 1174750]] 

> <GraphJson>
{
  "graphId": 20969,
  "gVertices": [
    {
      "lstAPs": [
        {
          "id": 2075098,
          "atomPositionNumber": 0,
          "atomPositionNumberInMol": -1,
          "apClass": {
            "rule": "Xlig",
            "subClass": 0,
            "bndTyp": "SINGLE"
          },
          "dirVec": {
            "x": -2.3339,
            "y": -0.0087,
            "z": 0.8172
          }
        },
        {
          "id": 2075099,
          "atomPositionNumber": 0,
          "atomPositionNumberInMol": -1,
          "apClass": {
            "rule": "Xlig",
            "subClass": 0,
            "bndTyp": "SINGLE"
          },
          "dirVec": {
            "x": 2.336,
            "y": -5.0E-4,
            "z": 0.829
          }
        },
        {
          "id": 2075100,
          "atomPositionNumber": 0,
          "atomPositionNumberInMol": -1,
          "apClass": {
            "rule": "scaff",
            "subClass": 0,
            "bndTyp": "SINGLE"
          },
          "dirVec": {
            "x": -0.0095,
            "y": 0.0046,
            "z": -1.7113
          }
        }
      ],
      "lstSymAPs": [
        {
          "symIds": [
            0,
            1
          ]
        }
      ],
      "mol": {
        "atoms": [
          {
            "elSymbol": "Pt",
            "p3d": {
              "x": -0.0098,
              "y": 0.0049,
              "z": 0.6289
            }
          },
          {
            "elSymbol": "C",
            "p3d": {
              "x": -6.0E-4,
              "y": 0.0016,
              "z": 2.5609
            }
          },
          {
            "elSymbol": "O",
            "p3d": {
              "x": 0.0025,
              "y": -0.0041,
              "z": 3.6974
            }
          },
          {
            "elSymbol": "Du",
            "p3d": {
              "x": -0.007,
              "y": 1.0013,
              "z": 0.6372
            }
          },
          {
            "elSymbol": "Du",
            "p3d": {
              "x": -0.0014,
              "y": 0.9902,
              "z": 2.5698
            }
          }
        ],
        "bonds": [
          {
            "atomIds": [
              1,
              2
            ],
            "bo": "TRIPLE"
          },
          {
            "atomIds": [
              0,
              1
            ],
            "bo": "SINGLE"
          },
          {
            "atomIds": [
              3,
              0
            ],
            "bo": "SINGLE"
          },
          {
            "atomIds": [
              4,
              1
            ],
            "bo": "SINGLE"
          }
        ]
      },
      "vertexId": 1174741,
      "buildingBlockId": 0,
      "buildingBlockType": "SCAFFOLD",
      "isRCV": false,
      "properties": {
        "ATTACHMENT_POINTS": "1#Xlig:0:SINGLE:-2.3339%-0.0087%0.8172,Xlig:0:SINGLE:2.3360%-0.0005%0.8290,scaff:0:SINGLE:-0.0095%0.0046%-1.7113 ",
        "OLDVERTEXID": 201
      },
      "uniquefyingPropertyKeys": [],
      "allowedMutationTypes": [
        "DELETE",
        "EXTEND",
        "CHANGEBRANCH",
        "CHANGELINK",
        "ADDLINK",
        "DELETELINK",
        "DELETECHAIN"
      ],
      "vertexType": "MolecularFragment"
    },
    {
      "lstAPs": [
        {
          "id": 2075101,
          "atomPositionNumber": 0,
          "atomPositionNumberInMol": -1,
          "apClass": {
            "rule": "MPyridine",
            "subClass": 1,
            "bndTyp": "SINGLE"
          },
          "dirVec": {
            "x": -0.009779377457537534,
            "y": 0.004879377457537382,
            "z": 0.4680304204308088
          }
        },
        {
          "id": 2075102,
          "atomPositionNumber": 1,
          "atomPositionNumberInMol": -1,
          "apClass": {
            "rule": "LPyridineAlpha",
            "subClass": 0,
            "bndTyp": "SINGLE"
          },
          "dirVec": {
            "x": 1.7498113878580424,
            "y": -1.5425521902462944,
            "z": -1.2670236023275012
          }
        },
        {
          "id": 2075103,
          "atomPositionNumber": 8,
          "atomPositionNumberInMol": -1,
          "apClass": {
            "rule": "LPyridineAlpha",
            "subClass": 0,
            "bndTyp": "SINGLE"
          },
          "dirVec": {
            "x": -1.623992272866726,
            "y": 1.694540172820501,
            "z": -1.2840127710767786
          }
        }
      ],
      "lstSymAPs": [
        {
          "symIds": [
            1,
            2
          ]
        }
      ],
      "mol": {
        "atoms": [
          {
            "elSymbol": "N",
            "p3d": {
              "x": -0.009520622542462467,
              "y": 0.004620622542462618,
              "z": -1.5504304204308088
            }
          },
          {
            "elSymbol": "C",
            "p3d": {
              "x": 0.8426955164535905,
              "y": -0.8472127361782159,
              "z": -2.181427719478363
            }
          },
          {
            "elSymbol": "C",
            "p3d": {
              "x": 0.7971687590727337,
              "y": -0.9082893750711706,
              "z": -3.5798092977837723
            }
          },
          {
            "elSymbol": "H",
            "p3d": {
              "x": 1.3486670490833412,
              "y": -1.52302742265968,
              "z": -4.050646274838936
            }
          },
          {
            "elSymbol": "C",
            "p3d": {
              "x": -0.055461761672130454,
              "y": -0.06992844379434703,
              "z": -4.269187919444612
            }
          },
          {
            "elSymbol": "H",
            "p3d": {
              "x": -0.07372803298688399,
              "y": -0.09851265747929987,
              "z": -5.218166473501693
            }
          },
          {
            "elSymbol": "C",
            "p3d": {
              "x": -0.8903705558629028,
              "y": 0.8192168796905219,
              "z": -3.5958046191557655
            }
          },
          {
            "elSymbol": "H",
            "p3d": {
              "x": -1.467637017665257,
              "y": 1.402288830115317,
              "z": -4.075034076416081
            }
          },
          {
            "elSymbol": "C",
            "p3d": {
              "x": -0.856929403375486,
              "y": 0.830711007593109,
              "z": -2.199893416985629
            }
          }
        ],
        "bonds": [
          {
            "atomIds": [
              2,
              1
            ],
            "bo": "SINGLE"
          },
          {
            "atomIds": [
              3,
              2
            ],
            "bo": "SINGLE"
          },
          {
            "atomIds": [
              4,
              2
            ],
            "bo": "DOUBLE"
          },
          {
            "atomIds": [
              5,
              4
            ],
            "bo": "SINGLE"
          },
          {
            "atomIds": [
              6,
              4
            ],
            "bo": "SINGLE"
          },
          {
            "atomIds": [
              6,
              8
            ],
            "bo": "DOUBLE"
          },
          {
            "atomIds": [
              7,
              6
            ],
            "bo": "SINGLE"
          },
          {
            "atomIds": [
              8,
              0
            ],
            "bo": "SINGLE"
          },
          {
            "atomIds": [
              0,
              1
            ],
            "bo": "DOUBLE"
          }
        ]
      },
      "vertexId": 1174742,
      "buildingBlockId": 63,
      "buildingBlockType": "FRAGMENT",
      "isRCV": false,
      "properties": {
        "ATTACHMENT_POINTS": "1#MPyridine:1:SINGLE:-0.0098%0.0049%0.4680 2#LPyridineAlpha:0:SINGLE:1.7498%-1.5426%-1.2670 9#LPyridineAlpha:0:SINGLE:-1.6240%1.6945%-1.2840 ",
        "OLDVERTEXID": 202
      },
      "uniquefyingPropertyKeys": [],
      "allowedMutationTypes": [
        "DELETE",
        "EXTEND",
        "CHANGEBRANCH",
        "CHANGELINK",
        "ADDLINK",
        "DELETELINK",
        "DELETECHAIN"
      ],
      "vertexType": "MolecularFragment"
    },
    {
      "lstAPs": [
        {
          "id": 2075104,
          "atomPositionNumber": 0,
          "atomPositionNumberInMol": -1,
          "apClass": {
            "rule": "ATplus",
            "subClass": 0,
            "bndTyp": "ANY"
          },
          "dirVec": {
            "x": 1.7498113878580424,
            "y": -1.5425521902462944,
            "z": -1.2670236023275012
          }
        }
      ],
      "lstSymAPs": [],
      "mol": {
        "atoms": [
          {
            "elSymbol": "ATP",
            "p3d": {
              "x": 1.7628208697291199,
              "y": -1.552524462044315,
              "z": -1.2539095954404926
            }
          }
        ],
        "bonds": []
      },
      "vertexId": 1174743,
      "buildingBlockId": 78,
      "buildingBlockType": "FRAGMENT",
      "isRCV": true,
      "properties": {
        "ATTACHMENT_POINTS": "1#ATplus:0:ANY:1.7498%-1.5426%-1.2670 ",
        "OLDVERTEXID": 203
      },
      "uniquefyingPropertyKeys": [],
      "allowedMutationTypes": [
        "DELETE",
        "EXTEND",
        "CHANGEBRANCH",
        "CHANGELINK",
        "ADDLINK",
        "DELETELINK",
        "DELETECHAIN"
      ],
      "vertexType": "MolecularFragment"
    },
    {
      "lstAPs": [
        {
          "id": 2075105,
          "atomPositionNumber": 0,
          "atomPositionNumberInMol": -1,
          "apClass": {
            "rule": "ATplus",
            "subClass": 0,
            "bndTyp": "ANY"
          },
          "dirVec": {
            "x": -1.623992272866726,
            "y": 1.694540172820501,
            "z": -1.2840127710767786
          }
        }
      ],
      "lstSymAPs": [],
      "mol": {
        "atoms": [
          {
            "elSymbol": "ATP",
            "p3d": {
              "x": -1.634914608334237,
              "y": 1.7068403796281795,
              "z": -1.2709713945994476
            }
          }
        ],
        "bonds": []
      },
      "vertexId": 1174744,
      "buildingBlockId": 78,
      "buildingBlockType": "FRAGMENT",
      "isRCV": true,
      "properties": {
        "ATTACHMENT_POINTS": "1#ATplus:0:ANY:-1.6240%1.6945%-1.2840 ",
        "OLDVERTEXID": 204
      },
      "uniquefyingPropertyKeys": [],
      "allowedMutationTypes": [
        "DELETE",
        "EXTEND",
        "CHANGEBRANCH",
        "CHANGELINK",
        "ADDLINK",
        "DELETELINK",
        "DELETECHAIN"
      ],
      "vertexType": "MolecularFragment"
    },
    {
      "lstAPs": [
        {
          "id": 2075106,
          "atomPositionNumber": 0,
          "atomPositionNumberInMol": -1,
          "apClass": {
            "rule": "Xlig",
            "subClass": 1,
            "bndTyp": "SINGLE"
          },
          "dirVec": {
            "x": -0.1753,
            "y": 0.0948,
            "z": -0.4464
          }
        },
        {
          "id": 2075107,
          "atomPositionNumber": 0,
          "atomPositionNumberInMol": -1,
          "apClass": {
            "rule": "bridge",
            "subClass": 1,
            "bndTyp": "SINGLE"
          },
          "dirVec": {
            "x": -0.5345,
            "y": 2.7646,
            "z": 0.48009999999999997
          }
        }
      ],
      "lstSymAPs": [],
      "mol": {
        "atoms": [
          {
            "elSymbol": "O",
            "p3d": {
              "x": -0.3534,
              "y": 2.1044,
              "z": -0.7339
            }
          }
        ],
        "bonds": []
      },
      "vertexId": 1174745,
      "buildingBlockId": 72,
      "buildingBlockType": "FRAGMENT",
      "isRCV": false,
      "properties": {
        "ATTACHMENT_POINTS": "1#Xlig:1:SINGLE:-0.1753%0.0948%-0.4464,bridge:1:SINGLE:-0.5345%2.7646%0.4801 ",
        "OLDVERTEXID": 703
      },
      "uniquefyingPropertyKeys": [],
      "allowedMutationTypes": [
        "DELETE",
        "EXTEND",
        "CHANGEBRANCH",
        "CHANGELINK",
        "ADDLINK",
        "DELETELINK",
        "DELETECHAIN"
      ],
      "vertexType": "MolecularFragment"
    },
    {
      "lstAPs": [
        {
          "id": 2075108,
          "atomPositionNumber": 0,
          "atomPositionNumberInMol": -1,
          "apClass": {
            "rule": "Xlig",
            "subClass": 1,
            "bndTyp": "SINGLE"
          },
          "dirVec": {
            "x": -0.1753,
            "y": 0.0948,
            "z": -0.4464
          }
        },
        {
          "id": 2075109,
          "atomPositionNumber": 0,
          "atomPositionNumberInMol": -1,
          "apClass": {
            "rule": "bridge",
            "subClass": 1,
            "bndTyp": "SINGLE"
          },
          "dirVec": {
            "x": -0.5345,
            "y": 2.7646,
            "z": 0.48009999999999997
          }
        }
      ],
      "lstSymAPs": [],
      "mol": {
        "atoms": [
          {
            "elSymbol": "O",
            "p3d": {
              "x": -0.3534,
              "y": 2.1044,
              "z": -0.7339
            }
          }
        ],
        "bonds": []
      },
      "vertexId": 1174746,
      "buildingBlockId": 72,
      "buildingBlockType": "FRAGMENT",
      "isRCV": false,
      "properties": {
        "ATTACHMENT_POINTS": "1#Xlig:1:SINGLE:-0.1753%0.0948%-0.4464,bridge:1:SINGLE:-0.5345%2.7646%0.4801 ",
        "OLDVERTEXID": 697
      },
      "uniquefyingPropertyKeys": [],
      "allowedMutationTypes": [
        "DELETE",
        "EXTEND",
        "CHANGEBRANCH",
        "CHANGELINK",
        "ADDLINK",
        "DELETELINK",
        "DELETECHAIN"
      ],
      "vertexType": "MolecularFragment"
    },
    {
      "lstAPs": [
        {
          "id": 2075110,
          "atomPositionNumber": 0,
          "atomPositionNumberInMol": -1,
          "apClass": {
            "rule": "bridge",
            "subClass": 0,
            "bndTyp": "SINGLE"
          },
          "dirVec": {
            "x": -1.0417,
            "y": -0.7693,
            "z": 0.07320000000000002
          }
        },
        {
          "id": 2075111,
          "atomPositionNumber": 0,
          "atomPositionNumberInMol": -1,
          "apClass": {
            "rule": "bridge",
            "subClass": 0,
            "bndTyp": "SINGLE"
          },
          "dirVec": {
            "x": 1.2664,
            "y": -1.9999999999997797E-4,
            "z": 0.2522
          }
        }
      ],
      "lstSymAPs": [
        {
          "symIds": [
            0,
            1
          ]
        }
      ],
      "mol": {
        "atoms": [
          {
            "elSymbol": "C",
            "p3d": {
              "x": 0.4112,
              "y": -1.2101,
              "z": -0.1993
            }
          },
          {
            "elSymbol": "H",
            "p3d": {
              "x": 0.6587,
              "y": -2.0933,
              "z": 0.3897
            }
          },
          {
            "elSymbol": "H",
            "p3d": {
              "x": 0.5577,
              "y": -1.4056,
              "z": -1.2616
            }
          }
        ],
        "bonds": [
          {
            "atomIds": [
              0,
              1
            ],
            "bo": "SINGLE"
          },
          {
            "atomIds": [
              0,
              2
            ],
            "bo": "SINGLE"
          }
        ]
      },
      "vertexId": 1174747,
      "buildingBlockId": 66,
      "buildingBlockType": "FRAGMENT",
      "isRCV": false,
      "properties": {
        "ATTACHMENT_POINTS": "1#bridge:0:SINGLE:-1.0417%-0.7693%0.0732,bridge:0:SINGLE:1.2664%-0.0002%0.2522 ",
        "OLDVERTEXID": 20875
      },
      "uniquefyingPropertyKeys": [],
      "allowedMutationTypes": [
        "DELETE",
        "EXTEND",
        "CHANGEBRANCH",
        "CHANGELINK",
        "ADDLINK",
        "DELETELINK",
        "DELETECHAIN"
      ],
      "vertexType": "MolecularFragment"
    },
    {
      "lstAPs": [
        {
          "id": 2075112,
          "atomPositionNumber": 0,
          "atomPositionNumberInMol": -1,
          "apClass": {
            "rule": "bridge",
            "subClass": 0,
            "bndTyp": "SINGLE"
          },
          "dirVec": {
            "x": -1.0417,
            "y": -0.7693,
            "z": 0.07320000000000002
          }
        },
        {
          "id": 2075113,
          "atomPositionNumber": 0,
          "atomPositionNumberInMol": -1,
          "apClass": {
            "rule": "bridge",
            "subClass": 0,
            "bndTyp": "SINGLE"
          },
          "dirVec": {
            "x": 1.2664,
            "y": -1.9999999999997797E-4,
            "z": 0.2522
          }
        }
      ],
      "lstSymAPs": [
        {
          "symIds": [
            0,
            1
          ]
        }
      ],
      "mol": {
        "atoms": [
          {
            "elSymbol": "C",
            "p3d": {
              "x": 0.4112,
              "y": -1.2101,
              "z": -0.1993
            }
          },
          {
            "elSymbol": "H",
            "p3d": {
              "x": 0.6587,
              "y": -2.0933,
              "z": 0.3897
            }
          },
          {
            "elSymbol": "H",
            "p3d": {
              "x": 0.5577,
              "y": -1.4056,
              "z": -1.2616
            }
          }
        ],
        "bonds": [
          {
            "atomIds": [
              0,
              1
            ],
            "bo": "SINGLE"
          },
          {
            "atomIds": [
              0,
              2
            ],
            "bo": "SINGLE"
          }
        ]
      },
      "vertexId": 1174748,
      "buildingBlockId": 66,
      "buildingBlockType": "FRAGMENT",
      "isRCV": false,
      "properties": {
        "ATTACHMENT_POINTS": "1#bridge:0:SINGLE:-1.0417%-0.7693%0.0732,bridge:0:SINGLE:1.2664%-0.0002%0.2522 ",
        "OLDVERTEXID": 20927
      },
      "uniquefyingPropertyKeys": [],
      "allowedMutationTypes": [
        "DELETE",
        "EXTEND",
        "CHANGEBRANCH",
        "CHANGELINK",
        "ADDLINK",
        "DELETELINK",
        "DELETECHAIN"
      ],
      "vertexType": "MolecularFragment"
    },
    {
      "lstAPs": [
        {
          "id": 2075114,
          "atomPositionNumber": 0,
          "atomPositionNumberInMol": -1,
          "apClass": {
            "rule": "ATminus",
            "subClass": 0,
            "bndTyp": "ANY"
          },
          "dirVec": {
            "x": 0.0109,
            "y": -0.0071,
            "z": 0.0026
          }
        }
      ],
      "lstSymAPs": [],
      "mol": {
        "atoms": [
          {
            "elSymbol": "ATM",
            "p3d": {
              "x": -0.0096,
              "y": 0.0045,
              "z": -0.0011
            }
          }
        ],
        "bonds": []
      },
      "vertexId": 1174749,
      "buildingBlockId": 79,
      "buildingBlockType": "FRAGMENT",
      "isRCV": true,
      "properties": {
        "ATTACHMENT_POINTS": "1#ATminus:0:ANY:0.0109%-0.0071%0.0026 ",
        "OLDVERTEXID": 1174381
      },
      "uniquefyingPropertyKeys": [],
      "allowedMutationTypes": [
        "DELETE",
        "EXTEND",
        "CHANGEBRANCH",
        "CHANGELINK",
        "ADDLINK",
        "DELETELINK",
        "DELETECHAIN"
      ],
      "vertexType": "MolecularFragment"
    },
    {
      "lstAPs": [
        {
          "id": 2075115,
          "atomPositionNumber": 0,
          "atomPositionNumberInMol": -1,
          "apClass": {
            "rule": "ATminus",
            "subClass": 0,
            "bndTyp": "ANY"
          },
          "dirVec": {
            "x": 0.0109,
            "y": -0.0071,
            "z": 0.0026
          }
        }
      ],
      "lstSymAPs": [],
      "mol": {
        "atoms": [
          {
            "elSymbol": "ATM",
            "p3d": {
              "x": -0.0096,
              "y": 0.0045,
              "z": -0.0011
            }
          }
        ],
        "bonds": []
      },
      "vertexId": 1174750,
      "buildingBlockId": 79,
      "buildingBlockType": "FRAGMENT",
      "isRCV": true,
      "properties": {
        "ATTACHMENT_POINTS": "1#ATminus:0:ANY:0.0109%-0.0071%0.0026 ",
        "OLDVERTEXID": 1174382
      },
      "uniquefyingPropertyKeys": [],
      "allowedMutationTypes": [
        "DELETE",
        "EXTEND",
        "CHANGEBRANCH",
        "CHANGELINK",
        "ADDLINK",
        "DELETELINK",
        "DELETECHAIN"
      ],
      "vertexType": "MolecularFragment"
    }
  ],
  "gEdges": [
    {
      "srcAPID": 2075100,
      "trgAPID": 2075101,
      "bondType": "SINGLE"
    },
    {
      "srcAPID": 2075102,
      "trgAPID": 2075104,
      "bondType": "SINGLE"
    },
    {
      "srcAPID": 2075103,
      "trgAPID": 2075105,
      "bondType": "SINGLE"
    },
    {
      "srcAPID": 2075099,
      "trgAPID": 2075106,
      "bondType": "SINGLE"
    },
    {
      "srcAPID": 2075098,
      "trgAPID": 2075108,
      "bondType": "SINGLE"
    },
    {
      "srcAPID": 2075107,
      "trgAPID": 2075110,
      "bondType": "SINGLE"
    },
    {
      "srcAPID": 2075109,
      "trgAPID": 2075112,
      "bondType": "SINGLE"
    },
    {
      "srcAPID": 2075111,
      "trgAPID": 2075114,
      "bondType": "SINGLE"
    },
    {
      "srcAPID": 2075113,
      "trgAPID": 2075115,
      "bondType": "SINGLE"
    }
  ],
  "gRings": [
    {
      "vertices": [
        1174743,
        1174742,
        1174741,
        1174745,
        1174747,
        1174749
      ],
      "bndTyp": "SINGLE"
    },
    {
      "vertices": [
        1174744,
        1174742,
        1174741,
        1174746,
        1174748,
        1174750
      ],
      "bndTyp": "SINGLE"
    }
  ],
  "symVertices": [
    {
      "symIds": [
        1174743,
        1174744
      ]
    },
    {
      "symIds": [
        1174745,
        1174746
      ]
    },
    {
      "symIds": [
        1174747,
        1174748
      ]
    },
    {
      "symIds": [
        1174749,
        1174750
      ]
    }
  ]
}

> <SMILES>
[Pt]12(C#O)[N]=3C(=C(C(=C(C3C([H])([H])O1)[H])[H])[H])C([H])([H])O2

$$$$
