M10007445
  CDK     05042201043D

 53 57  0  0  0  0  0  0  0  0999 V2000
   -1.6199    0.0466    0.0203 Pt  0  0  0  0  0  0  0  0  0  0  0  0
   -3.5498    0.0809    0.0165 C   0  0  0  0  0  0  0  0  0  0  0  0
   -4.6929    0.1012    0.0130 O   0  0  0  0  0  0  0  0  0  0  0  0
    1.0804   -0.7576    0.9347 N   0  0  1  0  0  0  0  0  0  0  0  0
    1.1051    0.7523   -0.8983 N   0  0  1  0  0  0  0  0  0  0  0  0
    0.4183    0.0089    0.0189 C   0  0  0  0  0  0  0  0  0  0  0  0
    2.5690   -0.9468    0.9010 C   0  0  0  0  0  0  0  0  0  0  0  0
    2.7958   -2.0202    1.1066 H   0  0  0  0  0  0  0  0  0  0  0  0
    3.0223   -0.3480    1.7251 H   0  0  0  0  0  0  0  0  0  0  0  0
    3.1629   -0.5392   -0.4459 C   0  0  0  0  0  0  0  0  0  0  0  0
    2.9263   -1.2981   -1.2226 H   0  0  0  0  0  0  0  0  0  0  0  0
    4.2684   -0.5054   -0.3853 H   0  0  0  0  0  0  0  0  0  0  0  0
    2.6002    0.8251   -0.8431 C   0  0  0  0  0  0  0  0  0  0  0  0
    2.8894    1.6104   -0.1052 H   0  0  0  0  0  0  0  0  0  0  0  0
    3.0071    1.1410   -1.8291 H   0  0  0  0  0  0  0  0  0  0  0  0
   -1.6499   -1.9688   -0.4032 O   0  0  0  0  0  0  0  0  0  0  0  0
   -0.9561   -3.9068    0.4196 O   0  0  0  0  0  0  0  0  0  0  0  0
   -1.1820   -2.7328    0.5954 C   0  0  0  0  0  0  0  0  0  0  0  0
    0.4597   -1.4926    2.0962 C   0  0  2  0  0  0  0  0  0  0  0  0
   -0.9952   -1.9731    1.9150 C   0  0  2  0  0  0  0  0  0  0  0  0
    0.5389   -0.6191    3.3676 C   0  0  0  0  0  0  0  0  0  0  0  0
    0.1559   -1.4623    4.5918 C   0  0  0  0  0  0  0  0  0  0  0  0
   -1.2232   -2.1172    4.4297 C   0  0  0  0  0  0  0  0  0  0  0  0
   -1.3462   -2.8859    3.1083 C   0  0  0  0  0  0  0  0  0  0  0  0
    1.0962   -2.4159    2.2374 H   0  0  0  0  0  0  0  0  0  0  0  0
   -1.7010   -1.0907    1.9572 H   0  0  0  0  0  0  0  0  0  0  0  0
   -0.1358    0.2572    3.2728 H   0  0  0  0  0  0  0  0  0  0  0  0
    1.5522   -0.1984    3.4996 H   0  0  0  0  0  0  0  0  0  0  0  0
    0.1606   -0.8227    5.4963 H   0  0  0  0  0  0  0  0  0  0  0  0
    0.9224   -2.2417    4.7689 H   0  0  0  0  0  0  0  0  0  0  0  0
   -1.4138   -2.8029    5.2780 H   0  0  0  0  0  0  0  0  0  0  0  0
   -2.0126   -1.3414    4.4869 H   0  0  0  0  0  0  0  0  0  0  0  0
   -0.6935   -3.7824    3.1083 H   0  0  0  0  0  0  0  0  0  0  0  0
   -2.3759   -3.2767    2.9874 H   0  0  0  0  0  0  0  0  0  0  0  0
   -1.5830    2.0592    0.4522 O   0  0  0  0  0  0  0  0  0  0  0  0
   -0.8122    3.9771   -0.3477 O   0  0  0  0  0  0  0  0  0  0  0  0
   -1.0808    2.8141   -0.5361 C   0  0  0  0  0  0  0  0  0  0  0  0
    0.5234    1.5364   -2.0455 C   0  0  2  0  0  0  0  0  0  0  0  0
   -0.9158    2.0615   -1.8629 C   0  0  2  0  0  0  0  0  0  0  0  0
    0.5837    0.6890   -3.3359 C   0  0  0  0  0  0  0  0  0  0  0  0
    0.2365    1.5685   -4.5447 C   0  0  0  0  0  0  0  0  0  0  0  0
   -1.1259    2.2558   -4.3780 C   0  0  0  0  0  0  0  0  0  0  0  0
   -1.2343    3.0028   -3.0434 C   0  0  0  0  0  0  0  0  0  0  0  0
    1.1929    2.4396   -2.1552 H   0  0  0  0  0  0  0  0  0  0  0  0
   -1.6491    1.2030   -1.9160 H   0  0  0  0  0  0  0  0  0  0  0  0
   -0.1200   -0.1663   -3.2641 H   0  0  0  0  0  0  0  0  0  0  0  0
    1.5832    0.2369   -3.4691 H   0  0  0  0  0  0  0  0  0  0  0  0
    0.2322    0.9493   -5.4631 H   0  0  0  0  0  0  0  0  0  0  0  0
    1.0250    2.3308   -4.6977 H   0  0  0  0  0  0  0  0  0  0  0  0
   -1.2943    2.9619   -5.2143 H   0  0  0  0  0  0  0  0  0  0  0  0
   -1.9351    1.5023   -4.4532 H   0  0  0  0  0  0  0  0  0  0  0  0
   -0.5563    3.8803   -3.0243 H   0  0  0  0  0  0  0  0  0  0  0  0
   -2.2531    3.4207   -2.9206 H   0  0  0  0  0  0  0  0  0  0  0  0
  2  3  3  0  0  0  0
  1  2  1  0  0  0  0
  4  6  1  0  0  0  0
  5  6  1  0  0  0  0
  7  4  1  0  0  0  0
  8  7  1  0  0  0  0
  9  7  1  0  0  0  0
 10  7  1  0  0  0  0
 11 10  1  0  0  0  0
 12 10  1  0  0  0  0
 13  5  1  0  0  0  0
 14 13  1  0  0  0  0
 15 13  1  0  0  0  0
 10 13  1  0  0  0  0
  1  6  1  0  0  0  0
 17 18  2  0  0  0  0
 18 16  1  0  0  0  0
  1 16  1  0  0  0  0
 19 20  1  0  0  0  0
 21 22  1  0  0  0  0
 22 23  1  0  0  0  0
 23 24  1  0  0  0  0
 19 21  1  0  0  0  0
 20 24  1  0  0  0  0
 19 25  1  0  0  0  0
 20 26  1  0  0  0  0
 21 27  1  0  0  0  0
 21 28  1  0  0  0  0
 22 29  1  0  0  0  0
 22 30  1  0  0  0  0
 23 31  1  0  0  0  0
 23 32  1  0  0  0  0
 24 33  1  0  0  0  0
 24 34  1  0  0  0  0
 18 20  1  0  0  0  0
 36 37  2  0  0  0  0
 37 35  1  0  0  0  0
  1 35  1  0  0  0  0
 38 39  1  0  0  0  0
 40 41  1  0  0  0  0
 41 42  1  0  0  0  0
 42 43  1  0  0  0  0
 38 40  1  0  0  0  0
 39 43  1  0  0  0  0
 38 44  1  0  0  0  0
 39 45  1  0  0  0  0
 40 46  1  0  0  0  0
 40 47  1  0  0  0  0
 41 48  1  0  0  0  0
 41 49  1  0  0  0  0
 42 50  1  0  0  0  0
 42 51  1  0  0  0  0
 43 52  1  0  0  0  0
 43 53  1  0  0  0  0
 37 39  1  0  0  0  0
  5 38  1  0  0  0  0
  4 19  1  0  0  0  0
M  END
> <PM6_ENERGY>
-754.651

> <UID>
QMGKGMDQDSKFHI-IKOYXWPRNA-L

> <FITNESS>
1.14329

> <GCODE>
13011

> <GraphENC>
13011 700621_1_0,700622_57_1,700623_79_1,700624_79_1,700625_76_1,700626_76_1,700627_71_1,700628_71_1,700629_80_1,700630_80_1, 700621_2_700622_2_SINGLE_scaff:0_M6HPyrimidinylidene:1,700622_0_700623_0_SINGLE_L6HPyrimidinylideneSubN:0_ATplus:0,700622_1_700624_0_SINGLE_L6HPyrimidinylideneSubN:0_ATplus:0,700621_1_700625_0_SINGLE_Xlig:0_Xlig:1,700621_0_700626_0_SINGLE_Xlig:0_Xlig:1,700625_1_700627_1_SINGLE_bridge:1_bridge:0,700626_1_700628_1_SINGLE_bridge:1_bridge:0,700627_0_700629_0_SINGLE_bridge:0_ATminus:0,700628_0_700630_0_SINGLE_bridge:0_ATminus:0, DENOPTIMRing [vertices=[700623_79_1, 700622_57_1, 700621_1_0, 700625_76_1, 700627_71_1, 700629_80_1]] DENOPTIMRing [vertices=[700624_79_1, 700622_57_1, 700621_1_0, 700626_76_1, 700628_71_1, 700630_80_1]] SymmetricSet [symIds=[700623, 700624]] SymmetricSet [symIds=[700625, 700626]] SymmetricSet [symIds=[700627, 700628]] SymmetricSet [symIds=[700629, 700630]] 

> <GraphJson>
{
  "graphId": 13011,
  "gVertices": [
    {
      "lstAPs": [
        {
          "id": 1225834,
          "atomPositionNumber": 0,
          "atomPositionNumberInMol": -1,
          "apClass": {
            "rule": "Xlig",
            "subClass": 0,
            "bndTyp": "SINGLE"
          },
          "dirVec": {
            "x": -2.3339,
            "y": -0.0087,
            "z": 0.8172
          }
        },
        {
          "id": 1225835,
          "atomPositionNumber": 0,
          "atomPositionNumberInMol": -1,
          "apClass": {
            "rule": "Xlig",
            "subClass": 0,
            "bndTyp": "SINGLE"
          },
          "dirVec": {
            "x": 2.336,
            "y": -5.0E-4,
            "z": 0.829
          }
        },
        {
          "id": 1225836,
          "atomPositionNumber": 0,
          "atomPositionNumberInMol": -1,
          "apClass": {
            "rule": "scaff",
            "subClass": 0,
            "bndTyp": "SINGLE"
          },
          "dirVec": {
            "x": -0.0095,
            "y": 0.0046,
            "z": -1.7113
          }
        }
      ],
      "lstSymAPs": [
        {
          "symIds": [
            0,
            1
          ]
        }
      ],
      "mol": {
        "atoms": [
          {
            "elSymbol": "Pt",
            "p3d": {
              "x": -0.0098,
              "y": 0.0049,
              "z": 0.6289
            }
          },
          {
            "elSymbol": "C",
            "p3d": {
              "x": -6.0E-4,
              "y": 0.0016,
              "z": 2.5609
            }
          },
          {
            "elSymbol": "O",
            "p3d": {
              "x": 0.0025,
              "y": -0.0041,
              "z": 3.6974
            }
          },
          {
            "elSymbol": "Du",
            "p3d": {
              "x": -0.007,
              "y": 1.0013,
              "z": 0.6372
            }
          },
          {
            "elSymbol": "Du",
            "p3d": {
              "x": -0.0014,
              "y": 0.9902,
              "z": 2.5698
            }
          }
        ],
        "bonds": [
          {
            "atomIds": [
              1,
              2
            ],
            "bo": "TRIPLE"
          },
          {
            "atomIds": [
              0,
              1
            ],
            "bo": "SINGLE"
          },
          {
            "atomIds": [
              3,
              0
            ],
            "bo": "SINGLE"
          },
          {
            "atomIds": [
              4,
              1
            ],
            "bo": "SINGLE"
          }
        ]
      },
      "vertexId": 700621,
      "buildingBlockId": 0,
      "buildingBlockType": "SCAFFOLD",
      "isRCV": false,
      "properties": {
        "ATTACHMENT_POINTS": "1#Xlig:0:SINGLE:-2.3339%-0.0087%0.8172,Xlig:0:SINGLE:2.3360%-0.0005%0.8290,scaff:0:SINGLE:-0.0095%0.0046%-1.7113 ",
        "OLDVERTEXID": 177
      },
      "uniquefyingPropertyKeys": [],
      "allowedMutationTypes": [
        "DELETE",
        "EXTEND",
        "CHANGEBRANCH",
        "CHANGELINK",
        "ADDLINK",
        "DELETELINK",
        "DELETECHAIN"
      ],
      "vertexType": "MolecularFragment"
    },
    {
      "lstAPs": [
        {
          "id": 1225837,
          "atomPositionNumber": 0,
          "atomPositionNumberInMol": -1,
          "apClass": {
            "rule": "L6HPyrimidinylideneSubN",
            "subClass": 0,
            "bndTyp": "SINGLE"
          },
          "dirVec": {
            "x": 1.3883407152187113,
            "y": -1.9305708373750663,
            "z": -1.4728451519136216
          }
        },
        {
          "id": 1225838,
          "atomPositionNumber": 1,
          "atomPositionNumberInMol": -1,
          "apClass": {
            "rule": "L6HPyrimidinylideneSubN",
            "subClass": 0,
            "bndTyp": "SINGLE"
          },
          "dirVec": {
            "x": -1.4116930996412638,
            "y": 1.9634648640961083,
            "z": -1.5026726779359287
          }
        },
        {
          "id": 1225839,
          "atomPositionNumber": 2,
          "atomPositionNumberInMol": -1,
          "apClass": {
            "rule": "M6HPyrimidinylidene",
            "subClass": 1,
            "bndTyp": "SINGLE"
          },
          "dirVec": {
            "x": -0.009774765091213413,
            "y": 0.004874765091213455,
            "z": 0.43205088819242465
          }
        }
      ],
      "lstSymAPs": [
        {
          "symIds": [
            0,
            1
          ]
        }
      ],
      "mol": {
        "atoms": [
          {
            "elSymbol": "N",
            "p3d": {
              "x": 0.652072936281195,
              "y": -0.9267391890325968,
              "z": -2.199970333353834
            }
          },
          {
            "elSymbol": "N",
            "p3d": {
              "x": -0.637827129665478,
              "y": 0.9586684358478516,
              "z": -2.207351248841122
            }
          },
          {
            "elSymbol": "C",
            "p3d": {
              "x": -0.009525234908786586,
              "y": 0.004625234908786545,
              "z": -1.514450888192425
            }
          },
          {
            "elSymbol": "C",
            "p3d": {
              "x": 0.7706099453711337,
              "y": -0.965744069636831,
              "z": -3.6731974905719795
            }
          },
          {
            "elSymbol": "H",
            "p3d": {
              "x": 0.8307372333270738,
              "y": -1.99628974262755,
              "z": -4.008849937491664
            }
          },
          {
            "elSymbol": "H",
            "p3d": {
              "x": 1.6820747151742137,
              "y": -0.4467304034846947,
              "z": -3.993204283867276
            }
          },
          {
            "elSymbol": "C",
            "p3d": {
              "x": -0.4361532308738043,
              "y": -0.3026623235442819,
              "z": -4.271360331659661
            }
          },
          {
            "elSymbol": "H",
            "p3d": {
              "x": -1.3129075687927156,
              "y": -0.9228190365300648,
              "z": -4.107831428162321
            }
          },
          {
            "elSymbol": "H",
            "p3d": {
              "x": -0.2961873164001987,
              "y": -0.20869395263456175,
              "z": -5.354131068267435
            }
          },
          {
            "elSymbol": "C",
            "p3d": {
              "x": -0.6377270980980322,
              "y": 1.061002251967289,
              "z": -3.668972581496101
            }
          },
          {
            "elSymbol": "H",
            "p3d": {
              "x": 0.15771643881518566,
              "y": 1.7178324152794513,
              "z": -4.003843311997157
            }
          },
          {
            "elSymbol": "H",
            "p3d": {
              "x": -1.5761233211679573,
              "y": 1.4843624537484181,
              "z": -4.01173595187856
            }
          }
        ],
        "bonds": [
          {
            "atomIds": [
              0,
              2
            ],
            "bo": "SINGLE"
          },
          {
            "atomIds": [
              1,
              2
            ],
            "bo": "SINGLE"
          },
          {
            "atomIds": [
              3,
              0
            ],
            "bo": "SINGLE"
          },
          {
            "atomIds": [
              4,
              3
            ],
            "bo": "SINGLE"
          },
          {
            "atomIds": [
              5,
              3
            ],
            "bo": "SINGLE"
          },
          {
            "atomIds": [
              6,
              3
            ],
            "bo": "SINGLE"
          },
          {
            "atomIds": [
              7,
              6
            ],
            "bo": "SINGLE"
          },
          {
            "atomIds": [
              8,
              6
            ],
            "bo": "SINGLE"
          },
          {
            "atomIds": [
              9,
              1
            ],
            "bo": "SINGLE"
          },
          {
            "atomIds": [
              10,
              9
            ],
            "bo": "SINGLE"
          },
          {
            "atomIds": [
              11,
              9
            ],
            "bo": "SINGLE"
          },
          {
            "atomIds": [
              6,
              9
            ],
            "bo": "SINGLE"
          }
        ]
      },
      "vertexId": 700622,
      "buildingBlockId": 56,
      "buildingBlockType": "FRAGMENT",
      "isRCV": false,
      "properties": {
        "ATTACHMENT_POINTS": "1#L6HPyrimidinylideneSubN:0:SINGLE:1.3883%-1.9306%-1.4728 2#L6HPyrimidinylideneSubN:0:SINGLE:-1.4117%1.9635%-1.5027 3#M6HPyrimidinylidene:1:SINGLE:-0.0098%0.0049%0.4321 ",
        "OLDVERTEXID": 178
      },
      "uniquefyingPropertyKeys": [],
      "allowedMutationTypes": [
        "DELETE",
        "EXTEND",
        "CHANGEBRANCH",
        "CHANGELINK",
        "ADDLINK",
        "DELETELINK",
        "DELETECHAIN"
      ],
      "vertexType": "MolecularFragment"
    },
    {
      "lstAPs": [
        {
          "id": 1225840,
          "atomPositionNumber": 0,
          "atomPositionNumberInMol": -1,
          "apClass": {
            "rule": "ATplus",
            "subClass": 0,
            "bndTyp": "ANY"
          },
          "dirVec": {
            "x": 1.3883407152187113,
            "y": -1.930570837375066,
            "z": -1.4728451519136216
          }
        }
      ],
      "lstSymAPs": [],
      "mol": {
        "atoms": [
          {
            "elSymbol": "ATP",
            "p3d": {
              "x": 1.3990613300044117,
              "y": -1.9451873841253586,
              "z": -1.4622576602506672
            }
          }
        ],
        "bonds": []
      },
      "vertexId": 700623,
      "buildingBlockId": 78,
      "buildingBlockType": "FRAGMENT",
      "isRCV": true,
      "properties": {
        "ATTACHMENT_POINTS": "1#ATplus:0:ANY:1.3883%-1.9306%-1.4728 ",
        "OLDVERTEXID": 179
      },
      "uniquefyingPropertyKeys": [],
      "allowedMutationTypes": [
        "DELETE",
        "EXTEND",
        "CHANGEBRANCH",
        "CHANGELINK",
        "ADDLINK",
        "DELETELINK",
        "DELETECHAIN"
      ],
      "vertexType": "MolecularFragment"
    },
    {
      "lstAPs": [
        {
          "id": 1225841,
          "atomPositionNumber": 0,
          "atomPositionNumberInMol": -1,
          "apClass": {
            "rule": "ATplus",
            "subClass": 0,
            "bndTyp": "ANY"
          },
          "dirVec": {
            "x": -1.4116930996412638,
            "y": 1.963464864096108,
            "z": -1.5026726779359287
          }
        }
      ],
      "lstSymAPs": [],
      "mol": {
        "atoms": [
          {
            "elSymbol": "ATP",
            "p3d": {
              "x": -1.422889814938761,
              "y": 1.97800280732598,
              "z": -1.4924770036967328
            }
          }
        ],
        "bonds": []
      },
      "vertexId": 700624,
      "buildingBlockId": 78,
      "buildingBlockType": "FRAGMENT",
      "isRCV": true,
      "properties": {
        "ATTACHMENT_POINTS": "1#ATplus:0:ANY:-1.4117%1.9635%-1.5027 ",
        "OLDVERTEXID": 180
      },
      "uniquefyingPropertyKeys": [],
      "allowedMutationTypes": [
        "DELETE",
        "EXTEND",
        "CHANGEBRANCH",
        "CHANGELINK",
        "ADDLINK",
        "DELETELINK",
        "DELETECHAIN"
      ],
      "vertexType": "MolecularFragment"
    },
    {
      "lstAPs": [
        {
          "id": 1225842,
          "atomPositionNumber": 0,
          "atomPositionNumberInMol": -1,
          "apClass": {
            "rule": "Xlig",
            "subClass": 1,
            "bndTyp": "SINGLE"
          },
          "dirVec": {
            "x": 2.9612,
            "y": 0.482,
            "z": 3.1597
          }
        },
        {
          "id": 1225843,
          "atomPositionNumber": 2,
          "atomPositionNumberInMol": -1,
          "apClass": {
            "rule": "bridge",
            "subClass": 1,
            "bndTyp": "SINGLE"
          },
          "dirVec": {
            "x": 0.31479999999999997,
            "y": 0.7222,
            "z": 2.0817
          }
        }
      ],
      "lstSymAPs": [],
      "mol": {
        "atoms": [
          {
            "elSymbol": "O",
            "p3d": {
              "x": 2.5349,
              "y": 1.3185,
              "z": 1.3621
            }
          },
          {
            "elSymbol": "O",
            "p3d": {
              "x": 0.8537,
              "y": 1.7439,
              "z": 0.0154
            }
          },
          {
            "elSymbol": "C",
            "p3d": {
              "x": 1.2704,
              "y": 1.2787,
              "z": 1.0674
            }
          }
        ],
        "bonds": [
          {
            "atomIds": [
              1,
              2
            ],
            "bo": "DOUBLE"
          },
          {
            "atomIds": [
              2,
              0
            ],
            "bo": "SINGLE"
          }
        ]
      },
      "vertexId": 700625,
      "buildingBlockId": 75,
      "buildingBlockType": "FRAGMENT",
      "isRCV": false,
      "properties": {
        "ATTACHMENT_POINTS": "1#Xlig:1:SINGLE:2.9612%0.4820%3.1597 3#bridge:1:SINGLE:0.3148%0.7222%2.0817 ",
        "OLDVERTEXID": 1788
      },
      "uniquefyingPropertyKeys": [],
      "allowedMutationTypes": [
        "DELETE",
        "EXTEND",
        "CHANGEBRANCH",
        "CHANGELINK",
        "ADDLINK",
        "DELETELINK",
        "DELETECHAIN"
      ],
      "vertexType": "MolecularFragment"
    },
    {
      "lstAPs": [
        {
          "id": 1225844,
          "atomPositionNumber": 0,
          "atomPositionNumberInMol": -1,
          "apClass": {
            "rule": "Xlig",
            "subClass": 1,
            "bndTyp": "SINGLE"
          },
          "dirVec": {
            "x": 2.9612,
            "y": 0.482,
            "z": 3.1597
          }
        },
        {
          "id": 1225845,
          "atomPositionNumber": 2,
          "atomPositionNumberInMol": -1,
          "apClass": {
            "rule": "bridge",
            "subClass": 1,
            "bndTyp": "SINGLE"
          },
          "dirVec": {
            "x": 0.31479999999999997,
            "y": 0.7222,
            "z": 2.0817
          }
        }
      ],
      "lstSymAPs": [],
      "mol": {
        "atoms": [
          {
            "elSymbol": "O",
            "p3d": {
              "x": 2.5349,
              "y": 1.3185,
              "z": 1.3621
            }
          },
          {
            "elSymbol": "O",
            "p3d": {
              "x": 0.8537,
              "y": 1.7439,
              "z": 0.0154
            }
          },
          {
            "elSymbol": "C",
            "p3d": {
              "x": 1.2704,
              "y": 1.2787,
              "z": 1.0674
            }
          }
        ],
        "bonds": [
          {
            "atomIds": [
              1,
              2
            ],
            "bo": "DOUBLE"
          },
          {
            "atomIds": [
              2,
              0
            ],
            "bo": "SINGLE"
          }
        ]
      },
      "vertexId": 700626,
      "buildingBlockId": 75,
      "buildingBlockType": "FRAGMENT",
      "isRCV": false,
      "properties": {
        "ATTACHMENT_POINTS": "1#Xlig:1:SINGLE:2.9612%0.4820%3.1597 3#bridge:1:SINGLE:0.3148%0.7222%2.0817 ",
        "OLDVERTEXID": 1766
      },
      "uniquefyingPropertyKeys": [],
      "allowedMutationTypes": [
        "DELETE",
        "EXTEND",
        "CHANGEBRANCH",
        "CHANGELINK",
        "ADDLINK",
        "DELETELINK",
        "DELETECHAIN"
      ],
      "vertexType": "MolecularFragment"
    },
    {
      "lstAPs": [
        {
          "id": 1225846,
          "atomPositionNumber": 0,
          "atomPositionNumberInMol": -1,
          "apClass": {
            "rule": "bridge",
            "subClass": 0,
            "bndTyp": "SINGLE"
          },
          "dirVec": {
            "x": 0.6064,
            "y": 0.7242,
            "z": -1.2721
          }
        },
        {
          "id": 1225847,
          "atomPositionNumber": 1,
          "atomPositionNumberInMol": -1,
          "apClass": {
            "rule": "bridge",
            "subClass": 0,
            "bndTyp": "SINGLE"
          },
          "dirVec": {
            "x": -0.30759999999999993,
            "y": -1.2087,
            "z": 0.009700000000000042
          }
        }
      ],
      "lstSymAPs": [
        {
          "symIds": [
            0,
            1
          ]
        }
      ],
      "mol": {
        "atoms": [
          {
            "elSymbol": "C",
            "p3d": {
              "x": 1.4767,
              "y": 0.4111,
              "z": -0.0358
            }
          },
          {
            "elSymbol": "C",
            "p3d": {
              "x": 0.4613,
              "y": -0.2385,
              "z": 0.9321
            }
          },
          {
            "elSymbol": "C",
            "p3d": {
              "x": 2.2309,
              "y": 1.5817,
              "z": 0.6566
            }
          },
          {
            "elSymbol": "C",
            "p3d": {
              "x": 2.9447,
              "y": 1.0663,
              "z": 1.9414
            }
          },
          {
            "elSymbol": "C",
            "p3d": {
              "x": 1.9846,
              "y": 0.3014,
              "z": 2.9005
            }
          },
          {
            "elSymbol": "C",
            "p3d": {
              "x": 1.1795,
              "y": -0.8206,
              "z": 2.1815
            }
          },
          {
            "elSymbol": "H",
            "p3d": {
              "x": 2.2245,
              "y": -0.3328,
              "z": -0.3416
            }
          },
          {
            "elSymbol": "H",
            "p3d": {
              "x": -0.2539,
              "y": 0.5182,
              "z": 1.28
            }
          },
          {
            "elSymbol": "H",
            "p3d": {
              "x": 1.5281,
              "y": 2.3785,
              "z": 0.9216
            }
          },
          {
            "elSymbol": "H",
            "p3d": {
              "x": 2.9736,
              "y": 1.9987,
              "z": -0.0312
            }
          },
          {
            "elSymbol": "H",
            "p3d": {
              "x": 3.3845,
              "y": 1.9153,
              "z": 2.4737
            }
          },
          {
            "elSymbol": "H",
            "p3d": {
              "x": 3.763,
              "y": 0.3987,
              "z": 1.6524
            }
          },
          {
            "elSymbol": "H",
            "p3d": {
              "x": 2.5686,
              "y": -0.1375,
              "z": 3.7143
            }
          },
          {
            "elSymbol": "H",
            "p3d": {
              "x": 1.2863,
              "y": 1.0176,
              "z": 3.3441
            }
          },
          {
            "elSymbol": "H",
            "p3d": {
              "x": 1.8581,
              "y": -1.6264,
              "z": 1.8862
            }
          },
          {
            "elSymbol": "H",
            "p3d": {
              "x": 0.4395,
              "y": -1.2349,
              "z": 2.8715
            }
          }
        ],
        "bonds": [
          {
            "atomIds": [
              0,
              1
            ],
            "bo": "SINGLE"
          },
          {
            "atomIds": [
              2,
              3
            ],
            "bo": "SINGLE"
          },
          {
            "atomIds": [
              3,
              4
            ],
            "bo": "SINGLE"
          },
          {
            "atomIds": [
              4,
              5
            ],
            "bo": "SINGLE"
          },
          {
            "atomIds": [
              0,
              2
            ],
            "bo": "SINGLE"
          },
          {
            "atomIds": [
              1,
              5
            ],
            "bo": "SINGLE"
          },
          {
            "atomIds": [
              0,
              6
            ],
            "bo": "SINGLE"
          },
          {
            "atomIds": [
              1,
              7
            ],
            "bo": "SINGLE"
          },
          {
            "atomIds": [
              2,
              8
            ],
            "bo": "SINGLE"
          },
          {
            "atomIds": [
              2,
              9
            ],
            "bo": "SINGLE"
          },
          {
            "atomIds": [
              3,
              10
            ],
            "bo": "SINGLE"
          },
          {
            "atomIds": [
              3,
              11
            ],
            "bo": "SINGLE"
          },
          {
            "atomIds": [
              4,
              12
            ],
            "bo": "SINGLE"
          },
          {
            "atomIds": [
              4,
              13
            ],
            "bo": "SINGLE"
          },
          {
            "atomIds": [
              5,
              14
            ],
            "bo": "SINGLE"
          },
          {
            "atomIds": [
              5,
              15
            ],
            "bo": "SINGLE"
          }
        ]
      },
      "vertexId": 700627,
      "buildingBlockId": 70,
      "buildingBlockType": "FRAGMENT",
      "isRCV": false,
      "properties": {
        "ATTACHMENT_POINTS": "1#bridge:0:SINGLE:0.6064%0.7242%-1.2721 2#bridge:0:SINGLE:-0.3076%-1.2087%0.0097 ",
        "OLDVERTEXID": 3760
      },
      "uniquefyingPropertyKeys": [],
      "allowedMutationTypes": [
        "DELETE",
        "EXTEND",
        "CHANGEBRANCH",
        "CHANGELINK",
        "ADDLINK",
        "DELETELINK",
        "DELETECHAIN"
      ],
      "vertexType": "MolecularFragment"
    },
    {
      "lstAPs": [
        {
          "id": 1225848,
          "atomPositionNumber": 0,
          "atomPositionNumberInMol": -1,
          "apClass": {
            "rule": "bridge",
            "subClass": 0,
            "bndTyp": "SINGLE"
          },
          "dirVec": {
            "x": 0.6064,
            "y": 0.7242,
            "z": -1.2721
          }
        },
        {
          "id": 1225849,
          "atomPositionNumber": 1,
          "atomPositionNumberInMol": -1,
          "apClass": {
            "rule": "bridge",
            "subClass": 0,
            "bndTyp": "SINGLE"
          },
          "dirVec": {
            "x": -0.30759999999999993,
            "y": -1.2087,
            "z": 0.009700000000000042
          }
        }
      ],
      "lstSymAPs": [
        {
          "symIds": [
            0,
            1
          ]
        }
      ],
      "mol": {
        "atoms": [
          {
            "elSymbol": "C",
            "p3d": {
              "x": 1.4767,
              "y": 0.4111,
              "z": -0.0358
            }
          },
          {
            "elSymbol": "C",
            "p3d": {
              "x": 0.4613,
              "y": -0.2385,
              "z": 0.9321
            }
          },
          {
            "elSymbol": "C",
            "p3d": {
              "x": 2.2309,
              "y": 1.5817,
              "z": 0.6566
            }
          },
          {
            "elSymbol": "C",
            "p3d": {
              "x": 2.9447,
              "y": 1.0663,
              "z": 1.9414
            }
          },
          {
            "elSymbol": "C",
            "p3d": {
              "x": 1.9846,
              "y": 0.3014,
              "z": 2.9005
            }
          },
          {
            "elSymbol": "C",
            "p3d": {
              "x": 1.1795,
              "y": -0.8206,
              "z": 2.1815
            }
          },
          {
            "elSymbol": "H",
            "p3d": {
              "x": 2.2245,
              "y": -0.3328,
              "z": -0.3416
            }
          },
          {
            "elSymbol": "H",
            "p3d": {
              "x": -0.2539,
              "y": 0.5182,
              "z": 1.28
            }
          },
          {
            "elSymbol": "H",
            "p3d": {
              "x": 1.5281,
              "y": 2.3785,
              "z": 0.9216
            }
          },
          {
            "elSymbol": "H",
            "p3d": {
              "x": 2.9736,
              "y": 1.9987,
              "z": -0.0312
            }
          },
          {
            "elSymbol": "H",
            "p3d": {
              "x": 3.3845,
              "y": 1.9153,
              "z": 2.4737
            }
          },
          {
            "elSymbol": "H",
            "p3d": {
              "x": 3.763,
              "y": 0.3987,
              "z": 1.6524
            }
          },
          {
            "elSymbol": "H",
            "p3d": {
              "x": 2.5686,
              "y": -0.1375,
              "z": 3.7143
            }
          },
          {
            "elSymbol": "H",
            "p3d": {
              "x": 1.2863,
              "y": 1.0176,
              "z": 3.3441
            }
          },
          {
            "elSymbol": "H",
            "p3d": {
              "x": 1.8581,
              "y": -1.6264,
              "z": 1.8862
            }
          },
          {
            "elSymbol": "H",
            "p3d": {
              "x": 0.4395,
              "y": -1.2349,
              "z": 2.8715
            }
          }
        ],
        "bonds": [
          {
            "atomIds": [
              0,
              1
            ],
            "bo": "SINGLE"
          },
          {
            "atomIds": [
              2,
              3
            ],
            "bo": "SINGLE"
          },
          {
            "atomIds": [
              3,
              4
            ],
            "bo": "SINGLE"
          },
          {
            "atomIds": [
              4,
              5
            ],
            "bo": "SINGLE"
          },
          {
            "atomIds": [
              0,
              2
            ],
            "bo": "SINGLE"
          },
          {
            "atomIds": [
              1,
              5
            ],
            "bo": "SINGLE"
          },
          {
            "atomIds": [
              0,
              6
            ],
            "bo": "SINGLE"
          },
          {
            "atomIds": [
              1,
              7
            ],
            "bo": "SINGLE"
          },
          {
            "atomIds": [
              2,
              8
            ],
            "bo": "SINGLE"
          },
          {
            "atomIds": [
              2,
              9
            ],
            "bo": "SINGLE"
          },
          {
            "atomIds": [
              3,
              10
            ],
            "bo": "SINGLE"
          },
          {
            "atomIds": [
              3,
              11
            ],
            "bo": "SINGLE"
          },
          {
            "atomIds": [
              4,
              12
            ],
            "bo": "SINGLE"
          },
          {
            "atomIds": [
              4,
              13
            ],
            "bo": "SINGLE"
          },
          {
            "atomIds": [
              5,
              14
            ],
            "bo": "SINGLE"
          },
          {
            "atomIds": [
              5,
              15
            ],
            "bo": "SINGLE"
          }
        ]
      },
      "vertexId": 700628,
      "buildingBlockId": 70,
      "buildingBlockType": "FRAGMENT",
      "isRCV": false,
      "properties": {
        "ATTACHMENT_POINTS": "1#bridge:0:SINGLE:0.6064%0.7242%-1.2721 2#bridge:0:SINGLE:-0.3076%-1.2087%0.0097 ",
        "OLDVERTEXID": 3990
      },
      "uniquefyingPropertyKeys": [],
      "allowedMutationTypes": [
        "DELETE",
        "EXTEND",
        "CHANGEBRANCH",
        "CHANGELINK",
        "ADDLINK",
        "DELETELINK",
        "DELETECHAIN"
      ],
      "vertexType": "MolecularFragment"
    },
    {
      "lstAPs": [
        {
          "id": 1225850,
          "atomPositionNumber": 0,
          "atomPositionNumberInMol": -1,
          "apClass": {
            "rule": "ATminus",
            "subClass": 0,
            "bndTyp": "ANY"
          },
          "dirVec": {
            "x": 0.0109,
            "y": -0.0071,
            "z": 0.0026
          }
        }
      ],
      "lstSymAPs": [],
      "mol": {
        "atoms": [
          {
            "elSymbol": "ATM",
            "p3d": {
              "x": -0.0096,
              "y": 0.0045,
              "z": -0.0011
            }
          }
        ],
        "bonds": []
      },
      "vertexId": 700629,
      "buildingBlockId": 79,
      "buildingBlockType": "FRAGMENT",
      "isRCV": true,
      "properties": {
        "ATTACHMENT_POINTS": "1#ATminus:0:ANY:0.0109%-0.0071%0.0026 ",
        "OLDVERTEXID": 700232
      },
      "uniquefyingPropertyKeys": [],
      "allowedMutationTypes": [
        "DELETE",
        "EXTEND",
        "CHANGEBRANCH",
        "CHANGELINK",
        "ADDLINK",
        "DELETELINK",
        "DELETECHAIN"
      ],
      "vertexType": "MolecularFragment"
    },
    {
      "lstAPs": [
        {
          "id": 1225851,
          "atomPositionNumber": 0,
          "atomPositionNumberInMol": -1,
          "apClass": {
            "rule": "ATminus",
            "subClass": 0,
            "bndTyp": "ANY"
          },
          "dirVec": {
            "x": 0.0109,
            "y": -0.0071,
            "z": 0.0026
          }
        }
      ],
      "lstSymAPs": [],
      "mol": {
        "atoms": [
          {
            "elSymbol": "ATM",
            "p3d": {
              "x": -0.0096,
              "y": 0.0045,
              "z": -0.0011
            }
          }
        ],
        "bonds": []
      },
      "vertexId": 700630,
      "buildingBlockId": 79,
      "buildingBlockType": "FRAGMENT",
      "isRCV": true,
      "properties": {
        "ATTACHMENT_POINTS": "1#ATminus:0:ANY:0.0109%-0.0071%0.0026 ",
        "OLDVERTEXID": 700233
      },
      "uniquefyingPropertyKeys": [],
      "allowedMutationTypes": [
        "DELETE",
        "EXTEND",
        "CHANGEBRANCH",
        "CHANGELINK",
        "ADDLINK",
        "DELETELINK",
        "DELETECHAIN"
      ],
      "vertexType": "MolecularFragment"
    }
  ],
  "gEdges": [
    {
      "srcAPID": 1225836,
      "trgAPID": 1225839,
      "bondType": "SINGLE"
    },
    {
      "srcAPID": 1225837,
      "trgAPID": 1225840,
      "bondType": "SINGLE"
    },
    {
      "srcAPID": 1225838,
      "trgAPID": 1225841,
      "bondType": "SINGLE"
    },
    {
      "srcAPID": 1225835,
      "trgAPID": 1225842,
      "bondType": "SINGLE"
    },
    {
      "srcAPID": 1225834,
      "trgAPID": 1225844,
      "bondType": "SINGLE"
    },
    {
      "srcAPID": 1225843,
      "trgAPID": 1225847,
      "bondType": "SINGLE"
    },
    {
      "srcAPID": 1225845,
      "trgAPID": 1225849,
      "bondType": "SINGLE"
    },
    {
      "srcAPID": 1225846,
      "trgAPID": 1225850,
      "bondType": "SINGLE"
    },
    {
      "srcAPID": 1225848,
      "trgAPID": 1225851,
      "bondType": "SINGLE"
    }
  ],
  "gRings": [
    {
      "vertices": [
        700623,
        700622,
        700621,
        700625,
        700627,
        700629
      ],
      "bndTyp": "SINGLE"
    },
    {
      "vertices": [
        700624,
        700622,
        700621,
        700626,
        700628,
        700630
      ],
      "bndTyp": "SINGLE"
    }
  ],
  "symVertices": [
    {
      "symIds": [
        700623,
        700624
      ]
    },
    {
      "symIds": [
        700625,
        700626
      ]
    },
    {
      "symIds": [
        700627,
        700628
      ]
    },
    {
      "symIds": [
        700629,
        700630
      ]
    }
  ]
}

> <SMILES>
[Pt]12(C#O)[C]3N(C([H])([H])C([H])([H])C(N3C4(C(C(C(C(C4([H])[H])([H])[H])([H])[H])([H])[H])([H])C(=O)O1)[H])([H])[H])C5(C(C(C(C(C5([H])[H])([H])[H])([H])[H])([H])[H])([H])C(=O)O2)[H]

$$$$
