M10006422
  CDK     05042201003D

 49 55  0  0  0  0  0  0  0  0999 V2000
   -0.0777    0.0166   -0.6811 Pt  0  0  0  0  0  0  0  0  0  0  0  0
   -0.2202   -0.0197   -2.5960 C   0  0  0  0  0  0  0  0  0  0  0  0
   -0.3053   -0.0418   -3.7379 O   0  0  0  0  0  0  0  0  0  0  0  0
   -0.7708   -0.7045    2.1142 N   0  0  1  0  0  0  0  0  0  0  0  0
    1.0218    0.8381    1.9500 N   0  0  1  0  0  0  0  0  0  0  0  0
    0.0752    0.0542    1.3687 C   0  0  0  0  0  0  0  0  0  0  0  0
   -0.7138   -0.7356    3.6012 C   0  0  0  0  0  0  0  0  0  0  0  0
   -1.0022   -1.7480    3.9624 H   0  0  0  0  0  0  0  0  0  0  0  0
   -1.4628   -0.0144    4.0059 H   0  0  0  0  0  0  0  0  0  0  0  0
    0.6995   -0.3818    4.0838 C   0  0  0  0  0  0  0  0  0  0  0  0
    1.3996   -1.2138    3.8530 H   0  0  0  0  0  0  0  0  0  0  0  0
    0.7082   -0.2757    5.1862 H   0  0  0  0  0  0  0  0  0  0  0  0
    1.1957    0.9132    3.4262 C   0  0  0  0  0  0  0  0  0  0  0  0
    0.6280    1.7935    3.8080 H   0  0  0  0  0  0  0  0  0  0  0  0
    2.2703    1.0781    3.6673 H   0  0  0  0  0  0  0  0  0  0  0  0
   -2.0363    0.1054   -0.4619 N   0  0  0  0  0  0  0  0  0  0  0  0
   -2.6666   -0.6615    0.5421 C   0  0  0  0  0  0  0  0  0  0  0  0
   -4.0378   -0.4610    0.5309 C   0  0  0  0  0  0  0  0  0  0  0  0
   -4.3083    0.4747   -0.5273 C   0  0  0  0  0  0  0  0  0  0  0  0
   -5.4860    1.0585   -1.0303 C   0  0  0  0  0  0  0  0  0  0  0  0
   -5.3900    1.9556   -2.0797 C   0  0  0  0  0  0  0  0  0  0  0  0
   -4.1339    2.2976   -2.6476 C   0  0  0  0  0  0  0  0  0  0  0  0
   -2.9526    1.7473   -2.1843 C   0  0  0  0  0  0  0  0  0  0  0  0
   -3.0411    0.8215   -1.1227 C   0  0  0  0  0  0  0  0  0  0  0  0
   -4.7722   -0.9041    1.1680 H   0  0  0  0  0  0  0  0  0  0  0  0
   -6.4468    0.8003   -0.5924 H   0  0  0  0  0  0  0  0  0  0  0  0
   -6.2863    2.4178   -2.4864 H   0  0  0  0  0  0  0  0  0  0  0  0
   -4.1134    3.0146   -3.4671 H   0  0  0  0  0  0  0  0  0  0  0  0
   -1.9926    2.0228   -2.6054 H   0  0  0  0  0  0  0  0  0  0  0  0
   -1.8131   -1.5226    1.4169 C   0  0  0  0  0  0  0  0  0  0  0  0
   -2.4386   -2.0532    2.1693 H   0  0  0  0  0  0  0  0  0  0  0  0
   -1.2973   -2.3082    0.8045 H   0  0  0  0  0  0  0  0  0  0  0  0
    1.8925   -0.0673   -0.7535 N   0  0  0  0  0  0  0  0  0  0  0  0
    2.6608    0.7393    0.1143 C   0  0  0  0  0  0  0  0  0  0  0  0
    4.0161    0.5381   -0.0924 C   0  0  0  0  0  0  0  0  0  0  0  0
    4.1316   -0.4401   -1.1406 C   0  0  0  0  0  0  0  0  0  0  0  0
    5.2248   -1.0443   -1.7892 C   0  0  0  0  0  0  0  0  0  0  0  0
    4.9790   -1.9831   -2.7759 C   0  0  0  0  0  0  0  0  0  0  0  0
    3.6545   -2.3472   -3.1368 C   0  0  0  0  0  0  0  0  0  0  0  0
    2.5521   -1.7780   -2.5256 C   0  0  0  0  0  0  0  0  0  0  0  0
    2.7920   -0.8102   -1.5268 C   0  0  0  0  0  0  0  0  0  0  0  0
    4.8345    1.0068    0.4096 H   0  0  0  0  0  0  0  0  0  0  0  0
    6.2385   -0.7689   -1.5098 H   0  0  0  0  0  0  0  0  0  0  0  0
    5.8075   -2.4618   -3.2923 H   0  0  0  0  0  0  0  0  0  0  0  0
    3.5165   -3.0967   -3.9148 H   0  0  0  0  0  0  0  0  0  0  0  0
    1.5416   -2.0695   -2.7883 H   0  0  0  0  0  0  0  0  0  0  0  0
    1.9386    1.6318    1.0719 C   0  0  0  0  0  0  0  0  0  0  0  0
    2.6610    2.2003    1.6992 H   0  0  0  0  0  0  0  0  0  0  0  0
    1.3256    2.3868    0.5126 H   0  0  0  0  0  0  0  0  0  0  0  0
  2  3  3  0  0  0  0
  1  2  1  0  0  0  0
  4  6  1  0  0  0  0
  5  6  1  0  0  0  0
  7  4  1  0  0  0  0
  8  7  1  0  0  0  0
  9  7  1  0  0  0  0
 10  7  1  0  0  0  0
 11 10  1  0  0  0  0
 12 10  1  0  0  0  0
 13  5  1  0  0  0  0
 14 13  1  0  0  0  0
 15 13  1  0  0  0  0
 10 13  1  0  0  0  0
  1  6  1  0  0  0  0
 17 16  1  0  0  0  0
 18 17  2  0  0  0  0
 19 18  1  0  0  0  0
 19 24  1  0  0  0  0
 20 19  2  0  0  0  0
 21 20  1  0  0  0  0
 22 21  2  0  0  0  0
 23 22  1  0  0  0  0
 23 24  2  0  0  0  0
 24 16  1  0  0  0  0
 25 18  1  0  0  0  0
 26 20  1  0  0  0  0
 27 21  1  0  0  0  0
 28 22  1  0  0  0  0
 29 23  1  0  0  0  0
  1 16  1  0  0  0  0
 30 31  1  0  0  0  0
 30 32  1  0  0  0  0
 17 30  1  0  0  0  0
 34 33  1  0  0  0  0
 35 34  2  0  0  0  0
 36 35  1  0  0  0  0
 36 41  1  0  0  0  0
 37 36  2  0  0  0  0
 38 37  1  0  0  0  0
 39 38  2  0  0  0  0
 40 39  1  0  0  0  0
 40 41  2  0  0  0  0
 41 33  1  0  0  0  0
 42 35  1  0  0  0  0
 43 37  1  0  0  0  0
 44 38  1  0  0  0  0
 45 39  1  0  0  0  0
 46 40  1  0  0  0  0
  1 33  1  0  0  0  0
 47 48  1  0  0  0  0
 47 49  1  0  0  0  0
 34 47  1  0  0  0  0
 47  5  1  0  0  0  0
 30  4  1  0  0  0  0
M  END
> <PM6_ENERGY>
398.999

> <UID>
ADZPMIODLXVANF-VVJAZYCVNA-N

> <FITNESS>
1.14528

> <GCODE>
11472

> <GraphENC>
11472 609935_1_0,609936_57_1,609937_79_1,609938_79_1,609939_75_1,609940_75_1,609941_67_1,609942_67_1,609943_80_1,609944_80_1, 609935_2_609936_2_SINGLE_scaff:0_M6HPyrimidinylidene:1,609936_0_609937_0_SINGLE_L6HPyrimidinylideneSubN:0_ATplus:0,609936_1_609938_0_SINGLE_L6HPyrimidinylideneSubN:0_ATplus:0,609935_0_609939_0_SINGLE_Xlig:0_Xlig:1,609935_1_609940_0_SINGLE_Xlig:0_Xlig:1,609940_1_609941_0_SINGLE_bridge:1_bridge:0,609939_1_609942_0_SINGLE_bridge:1_bridge:0,609941_1_609943_0_SINGLE_bridge:0_ATminus:0,609942_1_609944_0_SINGLE_bridge:0_ATminus:0, DENOPTIMRing [vertices=[609937_79_1, 609936_57_1, 609935_1_0, 609939_75_1, 609942_67_1, 609944_80_1]] DENOPTIMRing [vertices=[609938_79_1, 609936_57_1, 609935_1_0, 609940_75_1, 609941_67_1, 609943_80_1]] SymmetricSet [symIds=[609937, 609938]] SymmetricSet [symIds=[609939, 609940]] SymmetricSet [symIds=[609941, 609942]] SymmetricSet [symIds=[609943, 609944]] 

> <GraphJson>
{
  "graphId": 11472,
  "gVertices": [
    {
      "lstAPs": [
        {
          "id": 1069761,
          "atomPositionNumber": 0,
          "atomPositionNumberInMol": -1,
          "apClass": {
            "rule": "Xlig",
            "subClass": 0,
            "bndTyp": "SINGLE"
          },
          "dirVec": {
            "x": -2.3339,
            "y": -0.0087,
            "z": 0.8172
          }
        },
        {
          "id": 1069762,
          "atomPositionNumber": 0,
          "atomPositionNumberInMol": -1,
          "apClass": {
            "rule": "Xlig",
            "subClass": 0,
            "bndTyp": "SINGLE"
          },
          "dirVec": {
            "x": 2.336,
            "y": -5.0E-4,
            "z": 0.829
          }
        },
        {
          "id": 1069763,
          "atomPositionNumber": 0,
          "atomPositionNumberInMol": -1,
          "apClass": {
            "rule": "scaff",
            "subClass": 0,
            "bndTyp": "SINGLE"
          },
          "dirVec": {
            "x": -0.0095,
            "y": 0.0046,
            "z": -1.7113
          }
        }
      ],
      "lstSymAPs": [
        {
          "symIds": [
            0,
            1
          ]
        }
      ],
      "mol": {
        "atoms": [
          {
            "elSymbol": "Pt",
            "p3d": {
              "x": -0.0098,
              "y": 0.0049,
              "z": 0.6289
            }
          },
          {
            "elSymbol": "C",
            "p3d": {
              "x": -6.0E-4,
              "y": 0.0016,
              "z": 2.5609
            }
          },
          {
            "elSymbol": "O",
            "p3d": {
              "x": 0.0025,
              "y": -0.0041,
              "z": 3.6974
            }
          },
          {
            "elSymbol": "Du",
            "p3d": {
              "x": -0.007,
              "y": 1.0013,
              "z": 0.6372
            }
          },
          {
            "elSymbol": "Du",
            "p3d": {
              "x": -0.0014,
              "y": 0.9902,
              "z": 2.5698
            }
          }
        ],
        "bonds": [
          {
            "atomIds": [
              1,
              2
            ],
            "bo": "TRIPLE"
          },
          {
            "atomIds": [
              0,
              1
            ],
            "bo": "SINGLE"
          },
          {
            "atomIds": [
              3,
              0
            ],
            "bo": "SINGLE"
          },
          {
            "atomIds": [
              4,
              1
            ],
            "bo": "SINGLE"
          }
        ]
      },
      "vertexId": 609935,
      "buildingBlockId": 0,
      "buildingBlockType": "SCAFFOLD",
      "isRCV": false,
      "properties": {
        "ATTACHMENT_POINTS": "1#Xlig:0:SINGLE:-2.3339%-0.0087%0.8172,Xlig:0:SINGLE:2.3360%-0.0005%0.8290,scaff:0:SINGLE:-0.0095%0.0046%-1.7113 ",
        "OLDVERTEXID": 177
      },
      "uniquefyingPropertyKeys": [],
      "allowedMutationTypes": [
        "DELETE",
        "EXTEND",
        "CHANGEBRANCH",
        "CHANGELINK",
        "ADDLINK",
        "DELETELINK",
        "DELETECHAIN"
      ],
      "vertexType": "MolecularFragment"
    },
    {
      "lstAPs": [
        {
          "id": 1069764,
          "atomPositionNumber": 0,
          "atomPositionNumberInMol": -1,
          "apClass": {
            "rule": "L6HPyrimidinylideneSubN",
            "subClass": 0,
            "bndTyp": "SINGLE"
          },
          "dirVec": {
            "x": 1.3883407152187113,
            "y": -1.9305708373750663,
            "z": -1.4728451519136216
          }
        },
        {
          "id": 1069765,
          "atomPositionNumber": 1,
          "atomPositionNumberInMol": -1,
          "apClass": {
            "rule": "L6HPyrimidinylideneSubN",
            "subClass": 0,
            "bndTyp": "SINGLE"
          },
          "dirVec": {
            "x": -1.4116930996412638,
            "y": 1.9634648640961083,
            "z": -1.5026726779359287
          }
        },
        {
          "id": 1069766,
          "atomPositionNumber": 2,
          "atomPositionNumberInMol": -1,
          "apClass": {
            "rule": "M6HPyrimidinylidene",
            "subClass": 1,
            "bndTyp": "SINGLE"
          },
          "dirVec": {
            "x": -0.009774765091213413,
            "y": 0.004874765091213455,
            "z": 0.43205088819242465
          }
        }
      ],
      "lstSymAPs": [
        {
          "symIds": [
            0,
            1
          ]
        }
      ],
      "mol": {
        "atoms": [
          {
            "elSymbol": "N",
            "p3d": {
              "x": 0.652072936281195,
              "y": -0.9267391890325968,
              "z": -2.199970333353834
            }
          },
          {
            "elSymbol": "N",
            "p3d": {
              "x": -0.637827129665478,
              "y": 0.9586684358478516,
              "z": -2.207351248841122
            }
          },
          {
            "elSymbol": "C",
            "p3d": {
              "x": -0.009525234908786586,
              "y": 0.004625234908786545,
              "z": -1.514450888192425
            }
          },
          {
            "elSymbol": "C",
            "p3d": {
              "x": 0.7706099453711337,
              "y": -0.965744069636831,
              "z": -3.6731974905719795
            }
          },
          {
            "elSymbol": "H",
            "p3d": {
              "x": 0.8307372333270738,
              "y": -1.99628974262755,
              "z": -4.008849937491664
            }
          },
          {
            "elSymbol": "H",
            "p3d": {
              "x": 1.6820747151742137,
              "y": -0.4467304034846947,
              "z": -3.993204283867276
            }
          },
          {
            "elSymbol": "C",
            "p3d": {
              "x": -0.4361532308738043,
              "y": -0.3026623235442819,
              "z": -4.271360331659661
            }
          },
          {
            "elSymbol": "H",
            "p3d": {
              "x": -1.3129075687927156,
              "y": -0.9228190365300648,
              "z": -4.107831428162321
            }
          },
          {
            "elSymbol": "H",
            "p3d": {
              "x": -0.2961873164001987,
              "y": -0.20869395263456175,
              "z": -5.354131068267435
            }
          },
          {
            "elSymbol": "C",
            "p3d": {
              "x": -0.6377270980980322,
              "y": 1.061002251967289,
              "z": -3.668972581496101
            }
          },
          {
            "elSymbol": "H",
            "p3d": {
              "x": 0.15771643881518566,
              "y": 1.7178324152794513,
              "z": -4.003843311997157
            }
          },
          {
            "elSymbol": "H",
            "p3d": {
              "x": -1.5761233211679573,
              "y": 1.4843624537484181,
              "z": -4.01173595187856
            }
          }
        ],
        "bonds": [
          {
            "atomIds": [
              0,
              2
            ],
            "bo": "SINGLE"
          },
          {
            "atomIds": [
              1,
              2
            ],
            "bo": "SINGLE"
          },
          {
            "atomIds": [
              3,
              0
            ],
            "bo": "SINGLE"
          },
          {
            "atomIds": [
              4,
              3
            ],
            "bo": "SINGLE"
          },
          {
            "atomIds": [
              5,
              3
            ],
            "bo": "SINGLE"
          },
          {
            "atomIds": [
              6,
              3
            ],
            "bo": "SINGLE"
          },
          {
            "atomIds": [
              7,
              6
            ],
            "bo": "SINGLE"
          },
          {
            "atomIds": [
              8,
              6
            ],
            "bo": "SINGLE"
          },
          {
            "atomIds": [
              9,
              1
            ],
            "bo": "SINGLE"
          },
          {
            "atomIds": [
              10,
              9
            ],
            "bo": "SINGLE"
          },
          {
            "atomIds": [
              11,
              9
            ],
            "bo": "SINGLE"
          },
          {
            "atomIds": [
              6,
              9
            ],
            "bo": "SINGLE"
          }
        ]
      },
      "vertexId": 609936,
      "buildingBlockId": 56,
      "buildingBlockType": "FRAGMENT",
      "isRCV": false,
      "properties": {
        "ATTACHMENT_POINTS": "1#L6HPyrimidinylideneSubN:0:SINGLE:1.3883%-1.9306%-1.4728 2#L6HPyrimidinylideneSubN:0:SINGLE:-1.4117%1.9635%-1.5027 3#M6HPyrimidinylidene:1:SINGLE:-0.0098%0.0049%0.4321 ",
        "OLDVERTEXID": 178
      },
      "uniquefyingPropertyKeys": [],
      "allowedMutationTypes": [
        "DELETE",
        "EXTEND",
        "CHANGEBRANCH",
        "CHANGELINK",
        "ADDLINK",
        "DELETELINK",
        "DELETECHAIN"
      ],
      "vertexType": "MolecularFragment"
    },
    {
      "lstAPs": [
        {
          "id": 1069767,
          "atomPositionNumber": 0,
          "atomPositionNumberInMol": -1,
          "apClass": {
            "rule": "ATplus",
            "subClass": 0,
            "bndTyp": "ANY"
          },
          "dirVec": {
            "x": 1.3883407152187113,
            "y": -1.930570837375066,
            "z": -1.4728451519136216
          }
        }
      ],
      "lstSymAPs": [],
      "mol": {
        "atoms": [
          {
            "elSymbol": "ATP",
            "p3d": {
              "x": 1.3990613300044117,
              "y": -1.9451873841253586,
              "z": -1.4622576602506672
            }
          }
        ],
        "bonds": []
      },
      "vertexId": 609937,
      "buildingBlockId": 78,
      "buildingBlockType": "FRAGMENT",
      "isRCV": true,
      "properties": {
        "ATTACHMENT_POINTS": "1#ATplus:0:ANY:1.3883%-1.9306%-1.4728 ",
        "OLDVERTEXID": 179
      },
      "uniquefyingPropertyKeys": [],
      "allowedMutationTypes": [
        "DELETE",
        "EXTEND",
        "CHANGEBRANCH",
        "CHANGELINK",
        "ADDLINK",
        "DELETELINK",
        "DELETECHAIN"
      ],
      "vertexType": "MolecularFragment"
    },
    {
      "lstAPs": [
        {
          "id": 1069768,
          "atomPositionNumber": 0,
          "atomPositionNumberInMol": -1,
          "apClass": {
            "rule": "ATplus",
            "subClass": 0,
            "bndTyp": "ANY"
          },
          "dirVec": {
            "x": -1.4116930996412638,
            "y": 1.963464864096108,
            "z": -1.5026726779359287
          }
        }
      ],
      "lstSymAPs": [],
      "mol": {
        "atoms": [
          {
            "elSymbol": "ATP",
            "p3d": {
              "x": -1.422889814938761,
              "y": 1.97800280732598,
              "z": -1.4924770036967328
            }
          }
        ],
        "bonds": []
      },
      "vertexId": 609938,
      "buildingBlockId": 78,
      "buildingBlockType": "FRAGMENT",
      "isRCV": true,
      "properties": {
        "ATTACHMENT_POINTS": "1#ATplus:0:ANY:-1.4117%1.9635%-1.5027 ",
        "OLDVERTEXID": 180
      },
      "uniquefyingPropertyKeys": [],
      "allowedMutationTypes": [
        "DELETE",
        "EXTEND",
        "CHANGEBRANCH",
        "CHANGELINK",
        "ADDLINK",
        "DELETELINK",
        "DELETECHAIN"
      ],
      "vertexType": "MolecularFragment"
    },
    {
      "lstAPs": [
        {
          "id": 1069769,
          "atomPositionNumber": 0,
          "atomPositionNumberInMol": -1,
          "apClass": {
            "rule": "Xlig",
            "subClass": 1,
            "bndTyp": "SINGLE"
          },
          "dirVec": {
            "x": 1.6157,
            "y": 4.174,
            "z": -3.9778
          }
        },
        {
          "id": 1069770,
          "atomPositionNumber": 1,
          "atomPositionNumberInMol": -1,
          "apClass": {
            "rule": "bridge",
            "subClass": 1,
            "bndTyp": "SINGLE"
          },
          "dirVec": {
            "x": 1.8005,
            "y": 5.9885,
            "z": -1.6916
          }
        }
      ],
      "lstSymAPs": [],
      "mol": {
        "atoms": [
          {
            "elSymbol": "N",
            "p3d": {
              "x": 3.2459,
              "y": 5.1712,
              "z": -3.4361
            }
          },
          {
            "elSymbol": "C",
            "p3d": {
              "x": 3.1168,
              "y": 5.9027,
              "z": -2.2546
            }
          },
          {
            "elSymbol": "C",
            "p3d": {
              "x": 4.3191,
              "y": 6.5056,
              "z": -1.9234
            }
          },
          {
            "elSymbol": "C",
            "p3d": {
              "x": 5.2572,
              "y": 6.1707,
              "z": -2.9298
            }
          },
          {
            "elSymbol": "C",
            "p3d": {
              "x": 6.582,
              "y": 6.5002,
              "z": -3.1678
            }
          },
          {
            "elSymbol": "C",
            "p3d": {
              "x": 7.1905,
              "y": 6.1037,
              "z": -4.3266
            }
          },
          {
            "elSymbol": "C",
            "p3d": {
              "x": 6.49,
              "y": 5.3293,
              "z": -5.2524
            }
          },
          {
            "elSymbol": "C",
            "p3d": {
              "x": 5.1723,
              "y": 4.9274,
              "z": -5.0458
            }
          },
          {
            "elSymbol": "C",
            "p3d": {
              "x": 4.5534,
              "y": 5.34,
              "z": -3.8694
            }
          },
          {
            "elSymbol": "H",
            "p3d": {
              "x": 4.4846,
              "y": 7.0468,
              "z": -1.1588
            }
          },
          {
            "elSymbol": "H",
            "p3d": {
              "x": 7.0676,
              "y": 7.004,
              "z": -2.5242
            }
          },
          {
            "elSymbol": "H",
            "p3d": {
              "x": 8.0904,
              "y": 6.3555,
              "z": -4.5017
            }
          },
          {
            "elSymbol": "H",
            "p3d": {
              "x": 6.9258,
              "y": 5.0667,
              "z": -6.0535
            }
          },
          {
            "elSymbol": "H",
            "p3d": {
              "x": 4.714,
              "y": 4.3942,
              "z": -5.6832
            }
          }
        ],
        "bonds": [
          {
            "atomIds": [
              1,
              0
            ],
            "bo": "SINGLE"
          },
          {
            "atomIds": [
              2,
              1
            ],
            "bo": "DOUBLE"
          },
          {
            "atomIds": [
              3,
              2
            ],
            "bo": "SINGLE"
          },
          {
            "atomIds": [
              3,
              8
            ],
            "bo": "SINGLE"
          },
          {
            "atomIds": [
              4,
              3
            ],
            "bo": "DOUBLE"
          },
          {
            "atomIds": [
              5,
              4
            ],
            "bo": "SINGLE"
          },
          {
            "atomIds": [
              6,
              5
            ],
            "bo": "DOUBLE"
          },
          {
            "atomIds": [
              7,
              6
            ],
            "bo": "SINGLE"
          },
          {
            "atomIds": [
              7,
              8
            ],
            "bo": "DOUBLE"
          },
          {
            "atomIds": [
              8,
              0
            ],
            "bo": "SINGLE"
          },
          {
            "atomIds": [
              9,
              2
            ],
            "bo": "SINGLE"
          },
          {
            "atomIds": [
              10,
              4
            ],
            "bo": "SINGLE"
          },
          {
            "atomIds": [
              11,
              5
            ],
            "bo": "SINGLE"
          },
          {
            "atomIds": [
              12,
              6
            ],
            "bo": "SINGLE"
          },
          {
            "atomIds": [
              13,
              7
            ],
            "bo": "SINGLE"
          }
        ]
      },
      "vertexId": 609939,
      "buildingBlockId": 74,
      "buildingBlockType": "FRAGMENT",
      "isRCV": false,
      "properties": {
        "ATTACHMENT_POINTS": "1#Xlig:1:SINGLE:1.6157%4.1740%-3.9778 2#bridge:1:SINGLE:1.8005%5.9885%-1.6916 ",
        "OLDVERTEXID": 1765
      },
      "uniquefyingPropertyKeys": [],
      "allowedMutationTypes": [
        "DELETE",
        "EXTEND",
        "CHANGEBRANCH",
        "CHANGELINK",
        "ADDLINK",
        "DELETELINK",
        "DELETECHAIN"
      ],
      "vertexType": "MolecularFragment"
    },
    {
      "lstAPs": [
        {
          "id": 1069771,
          "atomPositionNumber": 0,
          "atomPositionNumberInMol": -1,
          "apClass": {
            "rule": "Xlig",
            "subClass": 1,
            "bndTyp": "SINGLE"
          },
          "dirVec": {
            "x": 1.6157,
            "y": 4.174,
            "z": -3.9778
          }
        },
        {
          "id": 1069772,
          "atomPositionNumber": 1,
          "atomPositionNumberInMol": -1,
          "apClass": {
            "rule": "bridge",
            "subClass": 1,
            "bndTyp": "SINGLE"
          },
          "dirVec": {
            "x": 1.8005,
            "y": 5.9885,
            "z": -1.6916
          }
        }
      ],
      "lstSymAPs": [],
      "mol": {
        "atoms": [
          {
            "elSymbol": "N",
            "p3d": {
              "x": 3.2459,
              "y": 5.1712,
              "z": -3.4361
            }
          },
          {
            "elSymbol": "C",
            "p3d": {
              "x": 3.1168,
              "y": 5.9027,
              "z": -2.2546
            }
          },
          {
            "elSymbol": "C",
            "p3d": {
              "x": 4.3191,
              "y": 6.5056,
              "z": -1.9234
            }
          },
          {
            "elSymbol": "C",
            "p3d": {
              "x": 5.2572,
              "y": 6.1707,
              "z": -2.9298
            }
          },
          {
            "elSymbol": "C",
            "p3d": {
              "x": 6.582,
              "y": 6.5002,
              "z": -3.1678
            }
          },
          {
            "elSymbol": "C",
            "p3d": {
              "x": 7.1905,
              "y": 6.1037,
              "z": -4.3266
            }
          },
          {
            "elSymbol": "C",
            "p3d": {
              "x": 6.49,
              "y": 5.3293,
              "z": -5.2524
            }
          },
          {
            "elSymbol": "C",
            "p3d": {
              "x": 5.1723,
              "y": 4.9274,
              "z": -5.0458
            }
          },
          {
            "elSymbol": "C",
            "p3d": {
              "x": 4.5534,
              "y": 5.34,
              "z": -3.8694
            }
          },
          {
            "elSymbol": "H",
            "p3d": {
              "x": 4.4846,
              "y": 7.0468,
              "z": -1.1588
            }
          },
          {
            "elSymbol": "H",
            "p3d": {
              "x": 7.0676,
              "y": 7.004,
              "z": -2.5242
            }
          },
          {
            "elSymbol": "H",
            "p3d": {
              "x": 8.0904,
              "y": 6.3555,
              "z": -4.5017
            }
          },
          {
            "elSymbol": "H",
            "p3d": {
              "x": 6.9258,
              "y": 5.0667,
              "z": -6.0535
            }
          },
          {
            "elSymbol": "H",
            "p3d": {
              "x": 4.714,
              "y": 4.3942,
              "z": -5.6832
            }
          }
        ],
        "bonds": [
          {
            "atomIds": [
              1,
              0
            ],
            "bo": "SINGLE"
          },
          {
            "atomIds": [
              2,
              1
            ],
            "bo": "DOUBLE"
          },
          {
            "atomIds": [
              3,
              2
            ],
            "bo": "SINGLE"
          },
          {
            "atomIds": [
              3,
              8
            ],
            "bo": "SINGLE"
          },
          {
            "atomIds": [
              4,
              3
            ],
            "bo": "DOUBLE"
          },
          {
            "atomIds": [
              5,
              4
            ],
            "bo": "SINGLE"
          },
          {
            "atomIds": [
              6,
              5
            ],
            "bo": "DOUBLE"
          },
          {
            "atomIds": [
              7,
              6
            ],
            "bo": "SINGLE"
          },
          {
            "atomIds": [
              7,
              8
            ],
            "bo": "DOUBLE"
          },
          {
            "atomIds": [
              8,
              0
            ],
            "bo": "SINGLE"
          },
          {
            "atomIds": [
              9,
              2
            ],
            "bo": "SINGLE"
          },
          {
            "atomIds": [
              10,
              4
            ],
            "bo": "SINGLE"
          },
          {
            "atomIds": [
              11,
              5
            ],
            "bo": "SINGLE"
          },
          {
            "atomIds": [
              12,
              6
            ],
            "bo": "SINGLE"
          },
          {
            "atomIds": [
              13,
              7
            ],
            "bo": "SINGLE"
          }
        ]
      },
      "vertexId": 609940,
      "buildingBlockId": 74,
      "buildingBlockType": "FRAGMENT",
      "isRCV": false,
      "properties": {
        "ATTACHMENT_POINTS": "1#Xlig:1:SINGLE:1.6157%4.1740%-3.9778 2#bridge:1:SINGLE:1.8005%5.9885%-1.6916 ",
        "OLDVERTEXID": 1781
      },
      "uniquefyingPropertyKeys": [],
      "allowedMutationTypes": [
        "DELETE",
        "EXTEND",
        "CHANGEBRANCH",
        "CHANGELINK",
        "ADDLINK",
        "DELETELINK",
        "DELETECHAIN"
      ],
      "vertexType": "MolecularFragment"
    },
    {
      "lstAPs": [
        {
          "id": 1069773,
          "atomPositionNumber": 0,
          "atomPositionNumberInMol": -1,
          "apClass": {
            "rule": "bridge",
            "subClass": 0,
            "bndTyp": "SINGLE"
          },
          "dirVec": {
            "x": -1.0417,
            "y": -0.7693,
            "z": 0.07320000000000002
          }
        },
        {
          "id": 1069774,
          "atomPositionNumber": 0,
          "atomPositionNumberInMol": -1,
          "apClass": {
            "rule": "bridge",
            "subClass": 0,
            "bndTyp": "SINGLE"
          },
          "dirVec": {
            "x": 1.2664,
            "y": -1.9999999999997797E-4,
            "z": 0.2522
          }
        }
      ],
      "lstSymAPs": [
        {
          "symIds": [
            0,
            1
          ]
        }
      ],
      "mol": {
        "atoms": [
          {
            "elSymbol": "C",
            "p3d": {
              "x": 0.4112,
              "y": -1.2101,
              "z": -0.1993
            }
          },
          {
            "elSymbol": "H",
            "p3d": {
              "x": 0.6587,
              "y": -2.0933,
              "z": 0.3897
            }
          },
          {
            "elSymbol": "H",
            "p3d": {
              "x": 0.5577,
              "y": -1.4056,
              "z": -1.2616
            }
          }
        ],
        "bonds": [
          {
            "atomIds": [
              0,
              1
            ],
            "bo": "SINGLE"
          },
          {
            "atomIds": [
              0,
              2
            ],
            "bo": "SINGLE"
          }
        ]
      },
      "vertexId": 609941,
      "buildingBlockId": 66,
      "buildingBlockType": "FRAGMENT",
      "isRCV": false,
      "properties": {
        "ATTACHMENT_POINTS": "1#bridge:0:SINGLE:-1.0417%-0.7693%0.0732,bridge:0:SINGLE:1.2664%-0.0002%0.2522 ",
        "OLDVERTEXID": 3563
      },
      "uniquefyingPropertyKeys": [],
      "allowedMutationTypes": [
        "DELETE",
        "EXTEND",
        "CHANGEBRANCH",
        "CHANGELINK",
        "ADDLINK",
        "DELETELINK",
        "DELETECHAIN"
      ],
      "vertexType": "MolecularFragment"
    },
    {
      "lstAPs": [
        {
          "id": 1069775,
          "atomPositionNumber": 0,
          "atomPositionNumberInMol": -1,
          "apClass": {
            "rule": "bridge",
            "subClass": 0,
            "bndTyp": "SINGLE"
          },
          "dirVec": {
            "x": -1.0417,
            "y": -0.7693,
            "z": 0.07320000000000002
          }
        },
        {
          "id": 1069776,
          "atomPositionNumber": 0,
          "atomPositionNumberInMol": -1,
          "apClass": {
            "rule": "bridge",
            "subClass": 0,
            "bndTyp": "SINGLE"
          },
          "dirVec": {
            "x": 1.2664,
            "y": -1.9999999999997797E-4,
            "z": 0.2522
          }
        }
      ],
      "lstSymAPs": [
        {
          "symIds": [
            0,
            1
          ]
        }
      ],
      "mol": {
        "atoms": [
          {
            "elSymbol": "C",
            "p3d": {
              "x": 0.4112,
              "y": -1.2101,
              "z": -0.1993
            }
          },
          {
            "elSymbol": "H",
            "p3d": {
              "x": 0.6587,
              "y": -2.0933,
              "z": 0.3897
            }
          },
          {
            "elSymbol": "H",
            "p3d": {
              "x": 0.5577,
              "y": -1.4056,
              "z": -1.2616
            }
          }
        ],
        "bonds": [
          {
            "atomIds": [
              0,
              1
            ],
            "bo": "SINGLE"
          },
          {
            "atomIds": [
              0,
              2
            ],
            "bo": "SINGLE"
          }
        ]
      },
      "vertexId": 609942,
      "buildingBlockId": 66,
      "buildingBlockType": "FRAGMENT",
      "isRCV": false,
      "properties": {
        "ATTACHMENT_POINTS": "1#bridge:0:SINGLE:-1.0417%-0.7693%0.0732,bridge:0:SINGLE:1.2664%-0.0002%0.2522 ",
        "OLDVERTEXID": 3511
      },
      "uniquefyingPropertyKeys": [],
      "allowedMutationTypes": [
        "DELETE",
        "EXTEND",
        "CHANGEBRANCH",
        "CHANGELINK",
        "ADDLINK",
        "DELETELINK",
        "DELETECHAIN"
      ],
      "vertexType": "MolecularFragment"
    },
    {
      "lstAPs": [
        {
          "id": 1069777,
          "atomPositionNumber": 0,
          "atomPositionNumberInMol": -1,
          "apClass": {
            "rule": "ATminus",
            "subClass": 0,
            "bndTyp": "ANY"
          },
          "dirVec": {
            "x": 0.0109,
            "y": -0.0071,
            "z": 0.0026
          }
        }
      ],
      "lstSymAPs": [],
      "mol": {
        "atoms": [
          {
            "elSymbol": "ATM",
            "p3d": {
              "x": -0.0096,
              "y": 0.0045,
              "z": -0.0011
            }
          }
        ],
        "bonds": []
      },
      "vertexId": 609943,
      "buildingBlockId": 79,
      "buildingBlockType": "FRAGMENT",
      "isRCV": true,
      "properties": {
        "ATTACHMENT_POINTS": "1#ATminus:0:ANY:0.0109%-0.0071%0.0026 ",
        "OLDVERTEXID": 609515
      },
      "uniquefyingPropertyKeys": [],
      "allowedMutationTypes": [
        "DELETE",
        "EXTEND",
        "CHANGEBRANCH",
        "CHANGELINK",
        "ADDLINK",
        "DELETELINK",
        "DELETECHAIN"
      ],
      "vertexType": "MolecularFragment"
    },
    {
      "lstAPs": [
        {
          "id": 1069778,
          "atomPositionNumber": 0,
          "atomPositionNumberInMol": -1,
          "apClass": {
            "rule": "ATminus",
            "subClass": 0,
            "bndTyp": "ANY"
          },
          "dirVec": {
            "x": 0.0109,
            "y": -0.0071,
            "z": 0.0026
          }
        }
      ],
      "lstSymAPs": [],
      "mol": {
        "atoms": [
          {
            "elSymbol": "ATM",
            "p3d": {
              "x": -0.0096,
              "y": 0.0045,
              "z": -0.0011
            }
          }
        ],
        "bonds": []
      },
      "vertexId": 609944,
      "buildingBlockId": 79,
      "buildingBlockType": "FRAGMENT",
      "isRCV": true,
      "properties": {
        "ATTACHMENT_POINTS": "1#ATminus:0:ANY:0.0109%-0.0071%0.0026 ",
        "OLDVERTEXID": 609516
      },
      "uniquefyingPropertyKeys": [],
      "allowedMutationTypes": [
        "DELETE",
        "EXTEND",
        "CHANGEBRANCH",
        "CHANGELINK",
        "ADDLINK",
        "DELETELINK",
        "DELETECHAIN"
      ],
      "vertexType": "MolecularFragment"
    }
  ],
  "gEdges": [
    {
      "srcAPID": 1069763,
      "trgAPID": 1069766,
      "bondType": "SINGLE"
    },
    {
      "srcAPID": 1069764,
      "trgAPID": 1069767,
      "bondType": "SINGLE"
    },
    {
      "srcAPID": 1069765,
      "trgAPID": 1069768,
      "bondType": "SINGLE"
    },
    {
      "srcAPID": 1069761,
      "trgAPID": 1069769,
      "bondType": "SINGLE"
    },
    {
      "srcAPID": 1069762,
      "trgAPID": 1069771,
      "bondType": "SINGLE"
    },
    {
      "srcAPID": 1069772,
      "trgAPID": 1069773,
      "bondType": "SINGLE"
    },
    {
      "srcAPID": 1069770,
      "trgAPID": 1069775,
      "bondType": "SINGLE"
    },
    {
      "srcAPID": 1069774,
      "trgAPID": 1069777,
      "bondType": "SINGLE"
    },
    {
      "srcAPID": 1069776,
      "trgAPID": 1069778,
      "bondType": "SINGLE"
    }
  ],
  "gRings": [
    {
      "vertices": [
        609937,
        609936,
        609935,
        609939,
        609942,
        609944
      ],
      "bndTyp": "SINGLE"
    },
    {
      "vertices": [
        609938,
        609936,
        609935,
        609940,
        609941,
        609943
      ],
      "bndTyp": "SINGLE"
    }
  ],
  "symVertices": [
    {
      "symIds": [
        609937,
        609938
      ]
    },
    {
      "symIds": [
        609939,
        609940
      ]
    },
    {
      "symIds": [
        609941,
        609942
      ]
    },
    {
      "symIds": [
        609943,
        609944
      ]
    }
  ]
}

> <SMILES>
[Pt]12(C#O)[C]3N(C([H])([H])C([H])([H])C(N3C([H])([H])C=4N1C=5C(C4[H])=C(C(=C(C5[H])[H])[H])[H])([H])[H])C([H])([H])C=6N2C=7C(C6[H])=C(C(=C(C7[H])[H])[H])[H]

$$$$
