M10000091
  CDK     05042200293D

 46 50  0  0  0  0  0  0  0  0999 V2000
    0.0109   -0.0004   -1.8622 Pt  0  0  0  0  0  0  0  0  0  0  0  0
    0.0221   -0.0008   -3.7822 C   0  0  0  0  0  0  0  0  0  0  0  0
    0.0288   -0.0010   -4.9255 O   0  0  0  0  0  0  0  0  0  0  0  0
   -0.0010    0.0000    0.1578 N   0  0  0  0  0  0  0  0  0  0  0  0
    0.8543    0.8268    0.8608 C   0  0  0  0  0  0  0  0  0  0  0  0
    0.8648    0.8223    2.2630 C   0  0  0  0  0  0  0  0  0  0  0  0
    1.5652    1.4710    2.7948 H   0  0  0  0  0  0  0  0  0  0  0  0
   -0.0174    0.0007    2.9650 C   0  0  0  0  0  0  0  0  0  0  0  0
   -0.0238    0.0009    4.0575 H   0  0  0  0  0  0  0  0  0  0  0  0
   -0.8913   -0.8213    2.2530 C   0  0  0  0  0  0  0  0  0  0  0  0
   -1.5979   -1.4698    2.7769 H   0  0  0  0  0  0  0  0  0  0  0  0
   -0.8644   -0.8265    0.8511 C   0  0  0  0  0  0  0  0  0  0  0  0
   -0.4571    3.0820   -1.0607 S   0  0  0  0  0  0  0  0  0  0  0  0
    0.0463    2.0259   -2.1824 O   0  0  0  0  0  0  0  0  0  0  0  0
   -1.4832    2.3547   -0.3208 O   0  0  0  0  0  0  0  0  0  0  0  0
   -0.7287    4.3529   -1.6707 O   0  0  0  0  0  0  0  0  0  0  0  0
    0.9577    3.1664    0.0038 C   0  0  2  0  0  0  0  0  0  0  0  0
    2.0532    4.1512   -0.4255 C   0  0  0  0  0  0  0  0  0  0  0  0
    3.3742    3.5766    0.1361 C   0  0  0  0  0  0  0  0  0  0  0  0
    3.0831    2.1427    0.6271 C   0  0  0  0  0  0  0  0  0  0  0  0
    1.6879    1.8005    0.0588 C   0  0  1  0  0  0  0  0  0  0  0  0
    0.6225    3.4468    1.0350 H   0  0  0  0  0  0  0  0  0  0  0  0
    2.1090    4.2454   -1.5279 H   0  0  0  0  0  0  0  0  0  0  0  0
    1.8547    5.1686   -0.0453 H   0  0  0  0  0  0  0  0  0  0  0  0
    3.7595    4.2012    0.9595 H   0  0  0  0  0  0  0  0  0  0  0  0
    4.1574    3.5758   -0.6422 H   0  0  0  0  0  0  0  0  0  0  0  0
    3.1054    2.0943    1.7296 H   0  0  0  0  0  0  0  0  0  0  0  0
    3.8416    1.4230    0.2721 H   0  0  0  0  0  0  0  0  0  0  0  0
    1.8581    1.3998   -0.9871 H   0  0  0  0  0  0  0  0  0  0  0  0
    0.4695   -3.0823   -1.0540 S   0  0  0  0  0  0  0  0  0  0  0  0
   -0.0209   -2.0269   -2.1820 O   0  0  0  0  0  0  0  0  0  0  0  0
    1.4867   -2.3544   -0.3025 O   0  0  0  0  0  0  0  0  0  0  0  0
    0.7484   -4.3536   -1.6601 O   0  0  0  0  0  0  0  0  0  0  0  0
   -0.9577   -3.1664   -0.0061 C   0  0  2  0  0  0  0  0  0  0  0  0
   -2.0480   -4.1514   -0.4477 C   0  0  0  0  0  0  0  0  0  0  0  0
   -3.3756   -3.5766    0.0976 C   0  0  0  0  0  0  0  0  0  0  0  0
   -3.0902   -2.1426    0.5919 C   0  0  0  0  0  0  0  0  0  0  0  0
   -1.6885   -1.8005    0.0398 C   0  0  1  0  0  0  0  0  0  0  0  0
   -0.6345   -3.4464    1.0292 H   0  0  0  0  0  0  0  0  0  0  0  0
   -2.0906   -4.2464   -1.5507 H   0  0  0  0  0  0  0  0  0  0  0  0
   -1.8540   -5.1686   -0.0645 H   0  0  0  0  0  0  0  0  0  0  0  0
   -3.7711   -4.2009    0.9163 H   0  0  0  0  0  0  0  0  0  0  0  0
   -4.1492   -3.5756   -0.6903 H   0  0  0  0  0  0  0  0  0  0  0  0
   -3.1254   -2.0941    1.6941 H   0  0  0  0  0  0  0  0  0  0  0  0
   -3.8445   -1.4229    0.2280 H   0  0  0  0  0  0  0  0  0  0  0  0
   -1.8465   -1.4003   -1.0082 H   0  0  0  0  0  0  0  0  0  0  0  0
  2  3  3  0  0  0  0
  1  2  1  0  0  0  0
  6  5  1  0  0  0  0
  7  6  1  0  0  0  0
  8  6  2  0  0  0  0
  9  8  1  0  0  0  0
 10  8  1  0  0  0  0
 10 12  2  0  0  0  0
 11 10  1  0  0  0  0
 12  4  1  0  0  0  0
  4  5  2  0  0  0  0
  1  4  1  0  0  0  0
 13 14  1  0  0  0  0
 15 13  2  0  0  0  0
 16 13  2  0  0  0  0
  1 14  1  0  0  0  0
 17 18  1  0  0  0  0
 18 19  1  0  0  0  0
 19 20  1  0  0  0  0
 20 21  1  0  0  0  0
 17 21  1  0  0  0  0
 17 22  1  0  0  0  0
 18 23  1  0  0  0  0
 18 24  1  0  0  0  0
 19 25  1  0  0  0  0
 19 26  1  0  0  0  0
 20 27  1  0  0  0  0
 20 28  1  0  0  0  0
 21 29  1  0  0  0  0
 13 17  1  0  0  0  0
 30 31  1  0  0  0  0
 32 30  2  0  0  0  0
 33 30  2  0  0  0  0
  1 31  1  0  0  0  0
 34 35  1  0  0  0  0
 35 36  1  0  0  0  0
 36 37  1  0  0  0  0
 37 38  1  0  0  0  0
 34 38  1  0  0  0  0
 34 39  1  0  0  0  0
 35 40  1  0  0  0  0
 35 41  1  0  0  0  0
 36 42  1  0  0  0  0
 36 43  1  0  0  0  0
 37 44  1  0  0  0  0
 37 45  1  0  0  0  0
 38 46  1  0  0  0  0
 30 34  1  0  0  0  0
 12 38  1  0  0  0  0
  5 21  1  0  0  0  0
M  END
> <PM6_ENERGY>
-906.078

> <UID>
HVDQINGINFZAGA-LCNWMXQANA-L

> <FITNESS>
1.14332

> <GCODE>
2061

> <GraphENC>
2061 50523_1_0,50524_64_1,50525_79_1,50526_79_1,50527_77_1,50528_77_1,50529_70_1,50530_70_1,50531_80_1,50532_80_1, 50523_2_50524_0_SINGLE_scaff:0_MPyridine:1,50524_1_50525_0_SINGLE_LPyridineAlpha:0_ATplus:0,50524_2_50526_0_SINGLE_LPyridineAlpha:0_ATplus:0,50523_1_50527_0_SINGLE_Xlig:0_Xlig:1,50523_0_50528_0_SINGLE_Xlig:0_Xlig:1,50527_1_50529_0_SINGLE_bridge:1_bridge:0,50528_1_50530_0_SINGLE_bridge:1_bridge:0,50529_1_50531_0_SINGLE_bridge:0_ATminus:0,50530_1_50532_0_SINGLE_bridge:0_ATminus:0, DENOPTIMRing [vertices=[50525_79_1, 50524_64_1, 50523_1_0, 50527_77_1, 50529_70_1, 50531_80_1]] DENOPTIMRing [vertices=[50526_79_1, 50524_64_1, 50523_1_0, 50528_77_1, 50530_70_1, 50532_80_1]] SymmetricSet [symIds=[50525, 50526]] SymmetricSet [symIds=[50527, 50528]] SymmetricSet [symIds=[50529, 50530]] SymmetricSet [symIds=[50531, 50532]] 

> <GraphJson>
{
  "graphId": 2061,
  "gVertices": [
    {
      "lstAPs": [
        {
          "id": 85068,
          "atomPositionNumber": 0,
          "atomPositionNumberInMol": -1,
          "apClass": {
            "rule": "Xlig",
            "subClass": 0,
            "bndTyp": "SINGLE"
          },
          "dirVec": {
            "x": -2.3339,
            "y": -0.0087,
            "z": 0.8172
          }
        },
        {
          "id": 85069,
          "atomPositionNumber": 0,
          "atomPositionNumberInMol": -1,
          "apClass": {
            "rule": "Xlig",
            "subClass": 0,
            "bndTyp": "SINGLE"
          },
          "dirVec": {
            "x": 2.336,
            "y": -5.0E-4,
            "z": 0.829
          }
        },
        {
          "id": 85070,
          "atomPositionNumber": 0,
          "atomPositionNumberInMol": -1,
          "apClass": {
            "rule": "scaff",
            "subClass": 0,
            "bndTyp": "SINGLE"
          },
          "dirVec": {
            "x": -0.0095,
            "y": 0.0046,
            "z": -1.7113
          }
        }
      ],
      "lstSymAPs": [
        {
          "symIds": [
            0,
            1
          ]
        }
      ],
      "mol": {
        "atoms": [
          {
            "elSymbol": "Pt",
            "p3d": {
              "x": -0.0098,
              "y": 0.0049,
              "z": 0.6289
            }
          },
          {
            "elSymbol": "C",
            "p3d": {
              "x": -6.0E-4,
              "y": 0.0016,
              "z": 2.5609
            }
          },
          {
            "elSymbol": "O",
            "p3d": {
              "x": 0.0025,
              "y": -0.0041,
              "z": 3.6974
            }
          },
          {
            "elSymbol": "Du",
            "p3d": {
              "x": -0.007,
              "y": 1.0013,
              "z": 0.6372
            }
          },
          {
            "elSymbol": "Du",
            "p3d": {
              "x": -0.0014,
              "y": 0.9902,
              "z": 2.5698
            }
          }
        ],
        "bonds": [
          {
            "atomIds": [
              1,
              2
            ],
            "bo": "TRIPLE"
          },
          {
            "atomIds": [
              0,
              1
            ],
            "bo": "SINGLE"
          },
          {
            "atomIds": [
              3,
              0
            ],
            "bo": "SINGLE"
          },
          {
            "atomIds": [
              4,
              1
            ],
            "bo": "SINGLE"
          }
        ]
      },
      "vertexId": 50523,
      "buildingBlockId": 0,
      "buildingBlockType": "SCAFFOLD",
      "isRCV": false,
      "properties": {
        "ATTACHMENT_POINTS": "1#Xlig:0:SINGLE:-2.3339%-0.0087%0.8172,Xlig:0:SINGLE:2.3360%-0.0005%0.8290,scaff:0:SINGLE:-0.0095%0.0046%-1.7113 ",
        "OLDVERTEXID": 201
      },
      "uniquefyingPropertyKeys": [],
      "allowedMutationTypes": [
        "DELETE",
        "EXTEND",
        "CHANGEBRANCH",
        "CHANGELINK",
        "ADDLINK",
        "DELETELINK",
        "DELETECHAIN"
      ],
      "vertexType": "MolecularFragment"
    },
    {
      "lstAPs": [
        {
          "id": 85071,
          "atomPositionNumber": 0,
          "atomPositionNumberInMol": -1,
          "apClass": {
            "rule": "MPyridine",
            "subClass": 1,
            "bndTyp": "SINGLE"
          },
          "dirVec": {
            "x": -0.009779377457537534,
            "y": 0.004879377457537382,
            "z": 0.4680304204308088
          }
        },
        {
          "id": 85072,
          "atomPositionNumber": 1,
          "atomPositionNumberInMol": -1,
          "apClass": {
            "rule": "LPyridineAlpha",
            "subClass": 0,
            "bndTyp": "SINGLE"
          },
          "dirVec": {
            "x": 1.7498113878580424,
            "y": -1.5425521902462944,
            "z": -1.2670236023275012
          }
        },
        {
          "id": 85073,
          "atomPositionNumber": 8,
          "atomPositionNumberInMol": -1,
          "apClass": {
            "rule": "LPyridineAlpha",
            "subClass": 0,
            "bndTyp": "SINGLE"
          },
          "dirVec": {
            "x": -1.623992272866726,
            "y": 1.694540172820501,
            "z": -1.2840127710767786
          }
        }
      ],
      "lstSymAPs": [
        {
          "symIds": [
            1,
            2
          ]
        }
      ],
      "mol": {
        "atoms": [
          {
            "elSymbol": "N",
            "p3d": {
              "x": -0.009520622542462467,
              "y": 0.004620622542462618,
              "z": -1.5504304204308088
            }
          },
          {
            "elSymbol": "C",
            "p3d": {
              "x": 0.8426955164535905,
              "y": -0.8472127361782159,
              "z": -2.181427719478363
            }
          },
          {
            "elSymbol": "C",
            "p3d": {
              "x": 0.7971687590727337,
              "y": -0.9082893750711706,
              "z": -3.5798092977837723
            }
          },
          {
            "elSymbol": "H",
            "p3d": {
              "x": 1.3486670490833412,
              "y": -1.52302742265968,
              "z": -4.050646274838936
            }
          },
          {
            "elSymbol": "C",
            "p3d": {
              "x": -0.055461761672130454,
              "y": -0.06992844379434703,
              "z": -4.269187919444612
            }
          },
          {
            "elSymbol": "H",
            "p3d": {
              "x": -0.07372803298688399,
              "y": -0.09851265747929987,
              "z": -5.218166473501693
            }
          },
          {
            "elSymbol": "C",
            "p3d": {
              "x": -0.8903705558629028,
              "y": 0.8192168796905219,
              "z": -3.5958046191557655
            }
          },
          {
            "elSymbol": "H",
            "p3d": {
              "x": -1.467637017665257,
              "y": 1.402288830115317,
              "z": -4.075034076416081
            }
          },
          {
            "elSymbol": "C",
            "p3d": {
              "x": -0.856929403375486,
              "y": 0.830711007593109,
              "z": -2.199893416985629
            }
          }
        ],
        "bonds": [
          {
            "atomIds": [
              2,
              1
            ],
            "bo": "SINGLE"
          },
          {
            "atomIds": [
              3,
              2
            ],
            "bo": "SINGLE"
          },
          {
            "atomIds": [
              4,
              2
            ],
            "bo": "DOUBLE"
          },
          {
            "atomIds": [
              5,
              4
            ],
            "bo": "SINGLE"
          },
          {
            "atomIds": [
              6,
              4
            ],
            "bo": "SINGLE"
          },
          {
            "atomIds": [
              6,
              8
            ],
            "bo": "DOUBLE"
          },
          {
            "atomIds": [
              7,
              6
            ],
            "bo": "SINGLE"
          },
          {
            "atomIds": [
              8,
              0
            ],
            "bo": "SINGLE"
          },
          {
            "atomIds": [
              0,
              1
            ],
            "bo": "DOUBLE"
          }
        ]
      },
      "vertexId": 50524,
      "buildingBlockId": 63,
      "buildingBlockType": "FRAGMENT",
      "isRCV": false,
      "properties": {
        "ATTACHMENT_POINTS": "1#MPyridine:1:SINGLE:-0.0098%0.0049%0.4680 2#LPyridineAlpha:0:SINGLE:1.7498%-1.5426%-1.2670 9#LPyridineAlpha:0:SINGLE:-1.6240%1.6945%-1.2840 ",
        "OLDVERTEXID": 202
      },
      "uniquefyingPropertyKeys": [],
      "allowedMutationTypes": [
        "DELETE",
        "EXTEND",
        "CHANGEBRANCH",
        "CHANGELINK",
        "ADDLINK",
        "DELETELINK",
        "DELETECHAIN"
      ],
      "vertexType": "MolecularFragment"
    },
    {
      "lstAPs": [
        {
          "id": 85074,
          "atomPositionNumber": 0,
          "atomPositionNumberInMol": -1,
          "apClass": {
            "rule": "ATplus",
            "subClass": 0,
            "bndTyp": "ANY"
          },
          "dirVec": {
            "x": 1.7498113878580424,
            "y": -1.5425521902462944,
            "z": -1.2670236023275012
          }
        }
      ],
      "lstSymAPs": [],
      "mol": {
        "atoms": [
          {
            "elSymbol": "ATP",
            "p3d": {
              "x": 1.7628208697291199,
              "y": -1.552524462044315,
              "z": -1.2539095954404926
            }
          }
        ],
        "bonds": []
      },
      "vertexId": 50525,
      "buildingBlockId": 78,
      "buildingBlockType": "FRAGMENT",
      "isRCV": true,
      "properties": {
        "ATTACHMENT_POINTS": "1#ATplus:0:ANY:1.7498%-1.5426%-1.2670 ",
        "OLDVERTEXID": 203
      },
      "uniquefyingPropertyKeys": [],
      "allowedMutationTypes": [
        "DELETE",
        "EXTEND",
        "CHANGEBRANCH",
        "CHANGELINK",
        "ADDLINK",
        "DELETELINK",
        "DELETECHAIN"
      ],
      "vertexType": "MolecularFragment"
    },
    {
      "lstAPs": [
        {
          "id": 85075,
          "atomPositionNumber": 0,
          "atomPositionNumberInMol": -1,
          "apClass": {
            "rule": "ATplus",
            "subClass": 0,
            "bndTyp": "ANY"
          },
          "dirVec": {
            "x": -1.623992272866726,
            "y": 1.694540172820501,
            "z": -1.2840127710767786
          }
        }
      ],
      "lstSymAPs": [],
      "mol": {
        "atoms": [
          {
            "elSymbol": "ATP",
            "p3d": {
              "x": -1.634914608334237,
              "y": 1.7068403796281795,
              "z": -1.2709713945994476
            }
          }
        ],
        "bonds": []
      },
      "vertexId": 50526,
      "buildingBlockId": 78,
      "buildingBlockType": "FRAGMENT",
      "isRCV": true,
      "properties": {
        "ATTACHMENT_POINTS": "1#ATplus:0:ANY:-1.6240%1.6945%-1.2840 ",
        "OLDVERTEXID": 204
      },
      "uniquefyingPropertyKeys": [],
      "allowedMutationTypes": [
        "DELETE",
        "EXTEND",
        "CHANGEBRANCH",
        "CHANGELINK",
        "ADDLINK",
        "DELETELINK",
        "DELETECHAIN"
      ],
      "vertexType": "MolecularFragment"
    },
    {
      "lstAPs": [
        {
          "id": 85076,
          "atomPositionNumber": 1,
          "atomPositionNumberInMol": -1,
          "apClass": {
            "rule": "Xlig",
            "subClass": 1,
            "bndTyp": "SINGLE"
          },
          "dirVec": {
            "x": 5.983,
            "y": 5.659,
            "z": 10.7602
          }
        },
        {
          "id": 85077,
          "atomPositionNumber": 0,
          "atomPositionNumberInMol": -1,
          "apClass": {
            "rule": "bridge",
            "subClass": 1,
            "bndTyp": "SINGLE"
          },
          "dirVec": {
            "x": 3.1219,
            "y": 7.0322,
            "z": 12.57
          }
        }
      ],
      "lstSymAPs": [],
      "mol": {
        "atoms": [
          {
            "elSymbol": "S",
            "p3d": {
              "x": 3.289,
              "y": 7.1626,
              "z": 10.7898
            }
          },
          {
            "elSymbol": "O",
            "p3d": {
              "x": 4.7494,
              "y": 7.4238,
              "z": 10.5812
            }
          },
          {
            "elSymbol": "O",
            "p3d": {
              "x": 2.8666,
              "y": 5.9079,
              "z": 10.2063
            }
          },
          {
            "elSymbol": "O",
            "p3d": {
              "x": 2.5225,
              "y": 8.319,
              "z": 10.3914
            }
          }
        ],
        "bonds": [
          {
            "atomIds": [
              0,
              1
            ],
            "bo": "SINGLE"
          },
          {
            "atomIds": [
              2,
              0
            ],
            "bo": "DOUBLE"
          },
          {
            "atomIds": [
              3,
              0
            ],
            "bo": "DOUBLE"
          }
        ]
      },
      "vertexId": 50527,
      "buildingBlockId": 76,
      "buildingBlockType": "FRAGMENT",
      "isRCV": false,
      "properties": {
        "ATTACHMENT_POINTS": "1#bridge:1:SINGLE:3.1219%7.0322%12.5700 2#Xlig:1:SINGLE:5.9830%5.6590%10.7602 ",
        "OLDVERTEXID": 753
      },
      "uniquefyingPropertyKeys": [],
      "allowedMutationTypes": [
        "DELETE",
        "EXTEND",
        "CHANGEBRANCH",
        "CHANGELINK",
        "ADDLINK",
        "DELETELINK",
        "DELETECHAIN"
      ],
      "vertexType": "MolecularFragment"
    },
    {
      "lstAPs": [
        {
          "id": 85078,
          "atomPositionNumber": 1,
          "atomPositionNumberInMol": -1,
          "apClass": {
            "rule": "Xlig",
            "subClass": 1,
            "bndTyp": "SINGLE"
          },
          "dirVec": {
            "x": 5.983,
            "y": 5.659,
            "z": 10.7602
          }
        },
        {
          "id": 85079,
          "atomPositionNumber": 0,
          "atomPositionNumberInMol": -1,
          "apClass": {
            "rule": "bridge",
            "subClass": 1,
            "bndTyp": "SINGLE"
          },
          "dirVec": {
            "x": 3.1219,
            "y": 7.0322,
            "z": 12.57
          }
        }
      ],
      "lstSymAPs": [],
      "mol": {
        "atoms": [
          {
            "elSymbol": "S",
            "p3d": {
              "x": 3.289,
              "y": 7.1626,
              "z": 10.7898
            }
          },
          {
            "elSymbol": "O",
            "p3d": {
              "x": 4.7494,
              "y": 7.4238,
              "z": 10.5812
            }
          },
          {
            "elSymbol": "O",
            "p3d": {
              "x": 2.8666,
              "y": 5.9079,
              "z": 10.2063
            }
          },
          {
            "elSymbol": "O",
            "p3d": {
              "x": 2.5225,
              "y": 8.319,
              "z": 10.3914
            }
          }
        ],
        "bonds": [
          {
            "atomIds": [
              0,
              1
            ],
            "bo": "SINGLE"
          },
          {
            "atomIds": [
              2,
              0
            ],
            "bo": "DOUBLE"
          },
          {
            "atomIds": [
              3,
              0
            ],
            "bo": "DOUBLE"
          }
        ]
      },
      "vertexId": 50528,
      "buildingBlockId": 76,
      "buildingBlockType": "FRAGMENT",
      "isRCV": false,
      "properties": {
        "ATTACHMENT_POINTS": "1#bridge:1:SINGLE:3.1219%7.0322%12.5700 2#Xlig:1:SINGLE:5.9830%5.6590%10.7602 ",
        "OLDVERTEXID": 701
      },
      "uniquefyingPropertyKeys": [],
      "allowedMutationTypes": [
        "DELETE",
        "EXTEND",
        "CHANGEBRANCH",
        "CHANGELINK",
        "ADDLINK",
        "DELETELINK",
        "DELETECHAIN"
      ],
      "vertexType": "MolecularFragment"
    },
    {
      "lstAPs": [
        {
          "id": 85080,
          "atomPositionNumber": 0,
          "atomPositionNumberInMol": -1,
          "apClass": {
            "rule": "bridge",
            "subClass": 0,
            "bndTyp": "SINGLE"
          },
          "dirVec": {
            "x": 2.2309,
            "y": 1.5817,
            "z": 0.6565999999999999
          }
        },
        {
          "id": 85081,
          "atomPositionNumber": 4,
          "atomPositionNumberInMol": -1,
          "apClass": {
            "rule": "bridge",
            "subClass": 0,
            "bndTyp": "SINGLE"
          },
          "dirVec": {
            "x": 1.1795,
            "y": -0.8206,
            "z": 2.1815
          }
        }
      ],
      "lstSymAPs": [
        {
          "symIds": [
            0,
            1
          ]
        }
      ],
      "mol": {
        "atoms": [
          {
            "elSymbol": "C",
            "p3d": {
              "x": 1.4767,
              "y": 0.4111,
              "z": -0.0358
            }
          },
          {
            "elSymbol": "C",
            "p3d": {
              "x": 0.6064,
              "y": 0.7242,
              "z": -1.2721
            }
          },
          {
            "elSymbol": "C",
            "p3d": {
              "x": -0.3951,
              "y": -0.4594,
              "z": -1.3469
            }
          },
          {
            "elSymbol": "C",
            "p3d": {
              "x": -0.3076,
              "y": -1.2087,
              "z": 0.0097
            }
          },
          {
            "elSymbol": "C",
            "p3d": {
              "x": 0.4613,
              "y": -0.2385,
              "z": 0.9321
            }
          },
          {
            "elSymbol": "H",
            "p3d": {
              "x": 2.2245,
              "y": -0.3328,
              "z": -0.3416
            }
          },
          {
            "elSymbol": "H",
            "p3d": {
              "x": 0.0672,
              "y": 1.6663,
              "z": -1.1316
            }
          },
          {
            "elSymbol": "H",
            "p3d": {
              "x": 1.2126,
              "y": 0.798,
              "z": -2.1799
            }
          },
          {
            "elSymbol": "H",
            "p3d": {
              "x": -0.1332,
              "y": -1.1322,
              "z": -2.1707
            }
          },
          {
            "elSymbol": "H",
            "p3d": {
              "x": -1.4103,
              "y": -0.0853,
              "z": -1.5178
            }
          },
          {
            "elSymbol": "H",
            "p3d": {
              "x": 0.248,
              "y": -2.143,
              "z": -0.114
            }
          },
          {
            "elSymbol": "H",
            "p3d": {
              "x": -1.2998,
              "y": -1.4376,
              "z": 0.4073
            }
          },
          {
            "elSymbol": "H",
            "p3d": {
              "x": -0.2539,
              "y": 0.5182,
              "z": 1.28
            }
          }
        ],
        "bonds": [
          {
            "atomIds": [
              0,
              1
            ],
            "bo": "SINGLE"
          },
          {
            "atomIds": [
              1,
              2
            ],
            "bo": "SINGLE"
          },
          {
            "atomIds": [
              2,
              3
            ],
            "bo": "SINGLE"
          },
          {
            "atomIds": [
              3,
              4
            ],
            "bo": "SINGLE"
          },
          {
            "atomIds": [
              0,
              4
            ],
            "bo": "SINGLE"
          },
          {
            "atomIds": [
              0,
              5
            ],
            "bo": "SINGLE"
          },
          {
            "atomIds": [
              1,
              6
            ],
            "bo": "SINGLE"
          },
          {
            "atomIds": [
              1,
              7
            ],
            "bo": "SINGLE"
          },
          {
            "atomIds": [
              2,
              8
            ],
            "bo": "SINGLE"
          },
          {
            "atomIds": [
              2,
              9
            ],
            "bo": "SINGLE"
          },
          {
            "atomIds": [
              3,
              10
            ],
            "bo": "SINGLE"
          },
          {
            "atomIds": [
              3,
              11
            ],
            "bo": "SINGLE"
          },
          {
            "atomIds": [
              4,
              12
            ],
            "bo": "SINGLE"
          }
        ]
      },
      "vertexId": 50529,
      "buildingBlockId": 69,
      "buildingBlockType": "FRAGMENT",
      "isRCV": false,
      "properties": {
        "ATTACHMENT_POINTS": "1#bridge:0:SINGLE:2.2309%1.5817%0.6566 5#bridge:0:SINGLE:1.1795%-0.8206%2.1815 ",
        "OLDVERTEXID": 22213
      },
      "uniquefyingPropertyKeys": [],
      "allowedMutationTypes": [
        "DELETE",
        "EXTEND",
        "CHANGEBRANCH",
        "CHANGELINK",
        "ADDLINK",
        "DELETELINK",
        "DELETECHAIN"
      ],
      "vertexType": "MolecularFragment"
    },
    {
      "lstAPs": [
        {
          "id": 85082,
          "atomPositionNumber": 0,
          "atomPositionNumberInMol": -1,
          "apClass": {
            "rule": "bridge",
            "subClass": 0,
            "bndTyp": "SINGLE"
          },
          "dirVec": {
            "x": 2.2309,
            "y": 1.5817,
            "z": 0.6565999999999999
          }
        },
        {
          "id": 85083,
          "atomPositionNumber": 4,
          "atomPositionNumberInMol": -1,
          "apClass": {
            "rule": "bridge",
            "subClass": 0,
            "bndTyp": "SINGLE"
          },
          "dirVec": {
            "x": 1.1795,
            "y": -0.8206,
            "z": 2.1815
          }
        }
      ],
      "lstSymAPs": [
        {
          "symIds": [
            0,
            1
          ]
        }
      ],
      "mol": {
        "atoms": [
          {
            "elSymbol": "C",
            "p3d": {
              "x": 1.4767,
              "y": 0.4111,
              "z": -0.0358
            }
          },
          {
            "elSymbol": "C",
            "p3d": {
              "x": 0.6064,
              "y": 0.7242,
              "z": -1.2721
            }
          },
          {
            "elSymbol": "C",
            "p3d": {
              "x": -0.3951,
              "y": -0.4594,
              "z": -1.3469
            }
          },
          {
            "elSymbol": "C",
            "p3d": {
              "x": -0.3076,
              "y": -1.2087,
              "z": 0.0097
            }
          },
          {
            "elSymbol": "C",
            "p3d": {
              "x": 0.4613,
              "y": -0.2385,
              "z": 0.9321
            }
          },
          {
            "elSymbol": "H",
            "p3d": {
              "x": 2.2245,
              "y": -0.3328,
              "z": -0.3416
            }
          },
          {
            "elSymbol": "H",
            "p3d": {
              "x": 0.0672,
              "y": 1.6663,
              "z": -1.1316
            }
          },
          {
            "elSymbol": "H",
            "p3d": {
              "x": 1.2126,
              "y": 0.798,
              "z": -2.1799
            }
          },
          {
            "elSymbol": "H",
            "p3d": {
              "x": -0.1332,
              "y": -1.1322,
              "z": -2.1707
            }
          },
          {
            "elSymbol": "H",
            "p3d": {
              "x": -1.4103,
              "y": -0.0853,
              "z": -1.5178
            }
          },
          {
            "elSymbol": "H",
            "p3d": {
              "x": 0.248,
              "y": -2.143,
              "z": -0.114
            }
          },
          {
            "elSymbol": "H",
            "p3d": {
              "x": -1.2998,
              "y": -1.4376,
              "z": 0.4073
            }
          },
          {
            "elSymbol": "H",
            "p3d": {
              "x": -0.2539,
              "y": 0.5182,
              "z": 1.28
            }
          }
        ],
        "bonds": [
          {
            "atomIds": [
              0,
              1
            ],
            "bo": "SINGLE"
          },
          {
            "atomIds": [
              1,
              2
            ],
            "bo": "SINGLE"
          },
          {
            "atomIds": [
              2,
              3
            ],
            "bo": "SINGLE"
          },
          {
            "atomIds": [
              3,
              4
            ],
            "bo": "SINGLE"
          },
          {
            "atomIds": [
              0,
              4
            ],
            "bo": "SINGLE"
          },
          {
            "atomIds": [
              0,
              5
            ],
            "bo": "SINGLE"
          },
          {
            "atomIds": [
              1,
              6
            ],
            "bo": "SINGLE"
          },
          {
            "atomIds": [
              1,
              7
            ],
            "bo": "SINGLE"
          },
          {
            "atomIds": [
              2,
              8
            ],
            "bo": "SINGLE"
          },
          {
            "atomIds": [
              2,
              9
            ],
            "bo": "SINGLE"
          },
          {
            "atomIds": [
              3,
              10
            ],
            "bo": "SINGLE"
          },
          {
            "atomIds": [
              3,
              11
            ],
            "bo": "SINGLE"
          },
          {
            "atomIds": [
              4,
              12
            ],
            "bo": "SINGLE"
          }
        ]
      },
      "vertexId": 50530,
      "buildingBlockId": 69,
      "buildingBlockType": "FRAGMENT",
      "isRCV": false,
      "properties": {
        "ATTACHMENT_POINTS": "1#bridge:0:SINGLE:2.2309%1.5817%0.6566 5#bridge:0:SINGLE:1.1795%-0.8206%2.1815 ",
        "OLDVERTEXID": 22369
      },
      "uniquefyingPropertyKeys": [],
      "allowedMutationTypes": [
        "DELETE",
        "EXTEND",
        "CHANGEBRANCH",
        "CHANGELINK",
        "ADDLINK",
        "DELETELINK",
        "DELETECHAIN"
      ],
      "vertexType": "MolecularFragment"
    },
    {
      "lstAPs": [
        {
          "id": 85084,
          "atomPositionNumber": 0,
          "atomPositionNumberInMol": -1,
          "apClass": {
            "rule": "ATminus",
            "subClass": 0,
            "bndTyp": "ANY"
          },
          "dirVec": {
            "x": 0.0109,
            "y": -0.0071,
            "z": 0.0026
          }
        }
      ],
      "lstSymAPs": [],
      "mol": {
        "atoms": [
          {
            "elSymbol": "ATM",
            "p3d": {
              "x": -0.0096,
              "y": 0.0045,
              "z": -0.0011
            }
          }
        ],
        "bonds": []
      },
      "vertexId": 50531,
      "buildingBlockId": 79,
      "buildingBlockType": "FRAGMENT",
      "isRCV": true,
      "properties": {
        "ATTACHMENT_POINTS": "1#ATminus:0:ANY:0.0109%-0.0071%0.0026 ",
        "OLDVERTEXID": 50083
      },
      "uniquefyingPropertyKeys": [],
      "allowedMutationTypes": [
        "DELETE",
        "EXTEND",
        "CHANGEBRANCH",
        "CHANGELINK",
        "ADDLINK",
        "DELETELINK",
        "DELETECHAIN"
      ],
      "vertexType": "MolecularFragment"
    },
    {
      "lstAPs": [
        {
          "id": 85085,
          "atomPositionNumber": 0,
          "atomPositionNumberInMol": -1,
          "apClass": {
            "rule": "ATminus",
            "subClass": 0,
            "bndTyp": "ANY"
          },
          "dirVec": {
            "x": 0.0109,
            "y": -0.0071,
            "z": 0.0026
          }
        }
      ],
      "lstSymAPs": [],
      "mol": {
        "atoms": [
          {
            "elSymbol": "ATM",
            "p3d": {
              "x": -0.0096,
              "y": 0.0045,
              "z": -0.0011
            }
          }
        ],
        "bonds": []
      },
      "vertexId": 50532,
      "buildingBlockId": 79,
      "buildingBlockType": "FRAGMENT",
      "isRCV": true,
      "properties": {
        "ATTACHMENT_POINTS": "1#ATminus:0:ANY:0.0109%-0.0071%0.0026 ",
        "OLDVERTEXID": 50084
      },
      "uniquefyingPropertyKeys": [],
      "allowedMutationTypes": [
        "DELETE",
        "EXTEND",
        "CHANGEBRANCH",
        "CHANGELINK",
        "ADDLINK",
        "DELETELINK",
        "DELETECHAIN"
      ],
      "vertexType": "MolecularFragment"
    }
  ],
  "gEdges": [
    {
      "srcAPID": 85070,
      "trgAPID": 85071,
      "bondType": "SINGLE"
    },
    {
      "srcAPID": 85072,
      "trgAPID": 85074,
      "bondType": "SINGLE"
    },
    {
      "srcAPID": 85073,
      "trgAPID": 85075,
      "bondType": "SINGLE"
    },
    {
      "srcAPID": 85069,
      "trgAPID": 85076,
      "bondType": "SINGLE"
    },
    {
      "srcAPID": 85068,
      "trgAPID": 85078,
      "bondType": "SINGLE"
    },
    {
      "srcAPID": 85077,
      "trgAPID": 85080,
      "bondType": "SINGLE"
    },
    {
      "srcAPID": 85079,
      "trgAPID": 85082,
      "bondType": "SINGLE"
    },
    {
      "srcAPID": 85081,
      "trgAPID": 85084,
      "bondType": "SINGLE"
    },
    {
      "srcAPID": 85083,
      "trgAPID": 85085,
      "bondType": "SINGLE"
    }
  ],
  "gRings": [
    {
      "vertices": [
        50525,
        50524,
        50523,
        50527,
        50529,
        50531
      ],
      "bndTyp": "SINGLE"
    },
    {
      "vertices": [
        50526,
        50524,
        50523,
        50528,
        50530,
        50532
      ],
      "bndTyp": "SINGLE"
    }
  ],
  "symVertices": [
    {
      "symIds": [
        50525,
        50526
      ]
    },
    {
      "symIds": [
        50527,
        50528
      ]
    },
    {
      "symIds": [
        50529,
        50530
      ]
    },
    {
      "symIds": [
        50531,
        50532
      ]
    }
  ]
}

> <SMILES>
[Pt]12(C#O)[N]=3C(=C(C(=C(C3C4(C(C(C(C4([H])S(O1)(=O)=O)([H])[H])([H])[H])([H])[H])[H])[H])[H])[H])C5(C(C(C(C5([H])S(O2)(=O)=O)([H])[H])([H])[H])([H])[H])[H]

$$$$
