M10012986
  CDK     05042201273D

 40 44  0  0  0  0  0  0  0  0999 V2000
   -0.0112    0.0025   -1.7844 Pt  0  0  0  0  0  0  0  0  0  0  0  0
   -0.0233    0.0053   -3.6774 C   0  0  0  0  0  0  0  0  0  0  0  0
   -0.0305    0.0071   -4.8227 O   0  0  0  0  0  0  0  0  0  0  0  0
    0.0018   -0.0003    0.2649 N   0  0  0  0  0  0  0  0  0  0  0  0
   -0.5564    1.0523    0.9802 C   0  0  0  0  0  0  0  0  0  0  0  0
   -0.5560    1.0439    2.3891 C   0  0  0  0  0  0  0  0  0  0  0  0
   -1.0031    1.8807    2.9313 H   0  0  0  0  0  0  0  0  0  0  0  0
    0.0197   -0.0042    3.0975 C   0  0  0  0  0  0  0  0  0  0  0  0
    0.0266   -0.0057    4.1897 H   0  0  0  0  0  0  0  0  0  0  0  0
    0.5864   -1.0504    2.3790 C   0  0  0  0  0  0  0  0  0  0  0  0
    1.0404   -1.8886    2.9132 H   0  0  0  0  0  0  0  0  0  0  0  0
    0.5689   -1.0549    0.9702 C   0  0  0  0  0  0  0  0  0  0  0  0
   -0.2514   -2.3169   -1.9768 S   0  0  0  0  0  0  0  0  0  0  0  0
    1.3774   -2.3590   -1.1714 C   0  0  2  0  0  0  0  0  0  0  0  0
    2.1753   -3.6446   -1.3929 C   0  0  0  0  0  0  0  0  0  0  0  0
    3.0012   -3.8231   -0.0989 C   0  0  0  0  0  0  0  0  0  0  0  0
    2.4432   -2.8233    0.9385 C   0  0  0  0  0  0  0  0  0  0  0  0
    1.1024   -2.3206    0.3391 C   0  0  1  0  0  0  0  0  0  0  0  0
    1.9788   -1.4734   -1.5072 H   0  0  0  0  0  0  0  0  0  0  0  0
    1.5143   -4.5150   -1.5616 H   0  0  0  0  0  0  0  0  0  0  0  0
    2.8174   -3.5771   -2.2871 H   0  0  0  0  0  0  0  0  0  0  0  0
    4.0721   -3.6353   -0.2838 H   0  0  0  0  0  0  0  0  0  0  0  0
    2.9268   -4.8594    0.2705 H   0  0  0  0  0  0  0  0  0  0  0  0
    3.1454   -1.9849    1.0889 H   0  0  0  0  0  0  0  0  0  0  0  0
    2.3011   -3.3022    1.9196 H   0  0  0  0  0  0  0  0  0  0  0  0
    0.3128   -3.1025    0.5646 H   0  0  0  0  0  0  0  0  0  0  0  0
    0.2262    2.3226   -1.9737 S   0  0  0  0  0  0  0  0  0  0  0  0
   -1.3922    2.3619   -1.1474 C   0  0  2  0  0  0  0  0  0  0  0  0
   -2.1933    3.6479   -1.3554 C   0  0  0  0  0  0  0  0  0  0  0  0
   -3.0019    3.8235   -0.0501 C   0  0  0  0  0  0  0  0  0  0  0  0
   -2.4309    2.8207    0.9772 C   0  0  0  0  0  0  0  0  0  0  0  0
   -1.0979    2.3196    0.3594 C   0  0  1  0  0  0  0  0  0  0  0  0
   -1.9976    1.4770   -1.4778 H   0  0  0  0  0  0  0  0  0  0  0  0
   -1.5348    4.5187   -1.5311 H   0  0  0  0  0  0  0  0  0  0  0  0
   -2.8473    3.5821   -2.2411 H   0  0  0  0  0  0  0  0  0  0  0  0
   -4.0753    3.6368   -0.2214 H   0  0  0  0  0  0  0  0  0  0  0  0
   -2.9221    4.8589    0.3209 H   0  0  0  0  0  0  0  0  0  0  0  0
   -3.1312    1.9820    1.1342 H   0  0  0  0  0  0  0  0  0  0  0  0
   -2.2762    3.2969    1.9577 H   0  0  0  0  0  0  0  0  0  0  0  0
   -0.3054    3.1009    0.5767 H   0  0  0  0  0  0  0  0  0  0  0  0
  2  3  3  0  0  0  0
  1  2  1  0  0  0  0
  6  5  1  0  0  0  0
  7  6  1  0  0  0  0
  8  6  2  0  0  0  0
  9  8  1  0  0  0  0
 10  8  1  0  0  0  0
 10 12  2  0  0  0  0
 11 10  1  0  0  0  0
 12  4  1  0  0  0  0
  4  5  2  0  0  0  0
  1  4  1  0  0  0  0
  1 13  1  0  0  0  0
 14 15  1  0  0  0  0
 15 16  1  0  0  0  0
 16 17  1  0  0  0  0
 17 18  1  0  0  0  0
 14 18  1  0  0  0  0
 14 19  1  0  0  0  0
 15 20  1  0  0  0  0
 15 21  1  0  0  0  0
 16 22  1  0  0  0  0
 16 23  1  0  0  0  0
 17 24  1  0  0  0  0
 17 25  1  0  0  0  0
 18 26  1  0  0  0  0
 13 14  1  0  0  0  0
  1 27  1  0  0  0  0
 28 29  1  0  0  0  0
 29 30  1  0  0  0  0
 30 31  1  0  0  0  0
 31 32  1  0  0  0  0
 28 32  1  0  0  0  0
 28 33  1  0  0  0  0
 29 34  1  0  0  0  0
 29 35  1  0  0  0  0
 30 36  1  0  0  0  0
 30 37  1  0  0  0  0
 31 38  1  0  0  0  0
 31 39  1  0  0  0  0
 32 40  1  0  0  0  0
 27 28  1  0  0  0  0
  5 32  1  0  0  0  0
 12 18  1  0  0  0  0
M  END
> <PM6_ENERGY>
21.566

> <UID>
SQYDCEHWFIHNOM-WXXGYIPGNA-L

> <FITNESS>
1.14532

> <GCODE>
21258

> <GraphENC>
21258 1191432_1_0,1191433_64_1,1191434_79_1,1191435_79_1,1191436_74_1,1191437_74_1,1191438_70_1,1191439_70_1,1191440_80_1,1191441_80_1, 1191432_2_1191433_0_SINGLE_scaff:0_MPyridine:1,1191433_1_1191434_0_SINGLE_LPyridineAlpha:0_ATplus:0,1191433_2_1191435_0_SINGLE_LPyridineAlpha:0_ATplus:0,1191432_1_1191436_0_SINGLE_Xlig:0_Xlig:1,1191432_0_1191437_0_SINGLE_Xlig:0_Xlig:1,1191437_1_1191438_0_SINGLE_bridge:1_bridge:0,1191436_1_1191439_0_SINGLE_bridge:1_bridge:0,1191438_1_1191440_0_SINGLE_bridge:0_ATminus:0,1191439_1_1191441_0_SINGLE_bridge:0_ATminus:0, DENOPTIMRing [vertices=[1191434_79_1, 1191433_64_1, 1191432_1_0, 1191437_74_1, 1191438_70_1, 1191440_80_1]] DENOPTIMRing [vertices=[1191435_79_1, 1191433_64_1, 1191432_1_0, 1191436_74_1, 1191439_70_1, 1191441_80_1]] SymmetricSet [symIds=[1191434, 1191435]] SymmetricSet [symIds=[1191436, 1191437]] SymmetricSet [symIds=[1191438, 1191439]] SymmetricSet [symIds=[1191440, 1191441]] 

> <GraphJson>
{
  "graphId": 21258,
  "gVertices": [
    {
      "lstAPs": [
        {
          "id": 2102592,
          "atomPositionNumber": 0,
          "atomPositionNumberInMol": -1,
          "apClass": {
            "rule": "Xlig",
            "subClass": 0,
            "bndTyp": "SINGLE"
          },
          "dirVec": {
            "x": -2.3339,
            "y": -0.0087,
            "z": 0.8172
          }
        },
        {
          "id": 2102593,
          "atomPositionNumber": 0,
          "atomPositionNumberInMol": -1,
          "apClass": {
            "rule": "Xlig",
            "subClass": 0,
            "bndTyp": "SINGLE"
          },
          "dirVec": {
            "x": 2.336,
            "y": -5.0E-4,
            "z": 0.829
          }
        },
        {
          "id": 2102594,
          "atomPositionNumber": 0,
          "atomPositionNumberInMol": -1,
          "apClass": {
            "rule": "scaff",
            "subClass": 0,
            "bndTyp": "SINGLE"
          },
          "dirVec": {
            "x": -0.0095,
            "y": 0.0046,
            "z": -1.7113
          }
        }
      ],
      "lstSymAPs": [
        {
          "symIds": [
            0,
            1
          ]
        }
      ],
      "mol": {
        "atoms": [
          {
            "elSymbol": "Pt",
            "p3d": {
              "x": -0.0098,
              "y": 0.0049,
              "z": 0.6289
            }
          },
          {
            "elSymbol": "C",
            "p3d": {
              "x": -6.0E-4,
              "y": 0.0016,
              "z": 2.5609
            }
          },
          {
            "elSymbol": "O",
            "p3d": {
              "x": 0.0025,
              "y": -0.0041,
              "z": 3.6974
            }
          },
          {
            "elSymbol": "Du",
            "p3d": {
              "x": -0.007,
              "y": 1.0013,
              "z": 0.6372
            }
          },
          {
            "elSymbol": "Du",
            "p3d": {
              "x": -0.0014,
              "y": 0.9902,
              "z": 2.5698
            }
          }
        ],
        "bonds": [
          {
            "atomIds": [
              1,
              2
            ],
            "bo": "TRIPLE"
          },
          {
            "atomIds": [
              0,
              1
            ],
            "bo": "SINGLE"
          },
          {
            "atomIds": [
              3,
              0
            ],
            "bo": "SINGLE"
          },
          {
            "atomIds": [
              4,
              1
            ],
            "bo": "SINGLE"
          }
        ]
      },
      "vertexId": 1191432,
      "buildingBlockId": 0,
      "buildingBlockType": "SCAFFOLD",
      "isRCV": false,
      "properties": {
        "ATTACHMENT_POINTS": "1#Xlig:0:SINGLE:-2.3339%-0.0087%0.8172,Xlig:0:SINGLE:2.3360%-0.0005%0.8290,scaff:0:SINGLE:-0.0095%0.0046%-1.7113 ",
        "OLDVERTEXID": 201
      },
      "uniquefyingPropertyKeys": [],
      "allowedMutationTypes": [
        "DELETE",
        "EXTEND",
        "CHANGEBRANCH",
        "CHANGELINK",
        "ADDLINK",
        "DELETELINK",
        "DELETECHAIN"
      ],
      "vertexType": "MolecularFragment"
    },
    {
      "lstAPs": [
        {
          "id": 2102595,
          "atomPositionNumber": 0,
          "atomPositionNumberInMol": -1,
          "apClass": {
            "rule": "MPyridine",
            "subClass": 1,
            "bndTyp": "SINGLE"
          },
          "dirVec": {
            "x": -0.009779377457537534,
            "y": 0.004879377457537382,
            "z": 0.4680304204308088
          }
        },
        {
          "id": 2102596,
          "atomPositionNumber": 1,
          "atomPositionNumberInMol": -1,
          "apClass": {
            "rule": "LPyridineAlpha",
            "subClass": 0,
            "bndTyp": "SINGLE"
          },
          "dirVec": {
            "x": 1.7498113878580424,
            "y": -1.5425521902462944,
            "z": -1.2670236023275012
          }
        },
        {
          "id": 2102597,
          "atomPositionNumber": 8,
          "atomPositionNumberInMol": -1,
          "apClass": {
            "rule": "LPyridineAlpha",
            "subClass": 0,
            "bndTyp": "SINGLE"
          },
          "dirVec": {
            "x": -1.623992272866726,
            "y": 1.694540172820501,
            "z": -1.2840127710767786
          }
        }
      ],
      "lstSymAPs": [
        {
          "symIds": [
            1,
            2
          ]
        }
      ],
      "mol": {
        "atoms": [
          {
            "elSymbol": "N",
            "p3d": {
              "x": -0.009520622542462467,
              "y": 0.004620622542462618,
              "z": -1.5504304204308088
            }
          },
          {
            "elSymbol": "C",
            "p3d": {
              "x": 0.8426955164535905,
              "y": -0.8472127361782159,
              "z": -2.181427719478363
            }
          },
          {
            "elSymbol": "C",
            "p3d": {
              "x": 0.7971687590727337,
              "y": -0.9082893750711706,
              "z": -3.5798092977837723
            }
          },
          {
            "elSymbol": "H",
            "p3d": {
              "x": 1.3486670490833412,
              "y": -1.52302742265968,
              "z": -4.050646274838936
            }
          },
          {
            "elSymbol": "C",
            "p3d": {
              "x": -0.055461761672130454,
              "y": -0.06992844379434703,
              "z": -4.269187919444612
            }
          },
          {
            "elSymbol": "H",
            "p3d": {
              "x": -0.07372803298688399,
              "y": -0.09851265747929987,
              "z": -5.218166473501693
            }
          },
          {
            "elSymbol": "C",
            "p3d": {
              "x": -0.8903705558629028,
              "y": 0.8192168796905219,
              "z": -3.5958046191557655
            }
          },
          {
            "elSymbol": "H",
            "p3d": {
              "x": -1.467637017665257,
              "y": 1.402288830115317,
              "z": -4.075034076416081
            }
          },
          {
            "elSymbol": "C",
            "p3d": {
              "x": -0.856929403375486,
              "y": 0.830711007593109,
              "z": -2.199893416985629
            }
          }
        ],
        "bonds": [
          {
            "atomIds": [
              2,
              1
            ],
            "bo": "SINGLE"
          },
          {
            "atomIds": [
              3,
              2
            ],
            "bo": "SINGLE"
          },
          {
            "atomIds": [
              4,
              2
            ],
            "bo": "DOUBLE"
          },
          {
            "atomIds": [
              5,
              4
            ],
            "bo": "SINGLE"
          },
          {
            "atomIds": [
              6,
              4
            ],
            "bo": "SINGLE"
          },
          {
            "atomIds": [
              6,
              8
            ],
            "bo": "DOUBLE"
          },
          {
            "atomIds": [
              7,
              6
            ],
            "bo": "SINGLE"
          },
          {
            "atomIds": [
              8,
              0
            ],
            "bo": "SINGLE"
          },
          {
            "atomIds": [
              0,
              1
            ],
            "bo": "DOUBLE"
          }
        ]
      },
      "vertexId": 1191433,
      "buildingBlockId": 63,
      "buildingBlockType": "FRAGMENT",
      "isRCV": false,
      "properties": {
        "ATTACHMENT_POINTS": "1#MPyridine:1:SINGLE:-0.0098%0.0049%0.4680 2#LPyridineAlpha:0:SINGLE:1.7498%-1.5426%-1.2670 9#LPyridineAlpha:0:SINGLE:-1.6240%1.6945%-1.2840 ",
        "OLDVERTEXID": 202
      },
      "uniquefyingPropertyKeys": [],
      "allowedMutationTypes": [
        "DELETE",
        "EXTEND",
        "CHANGEBRANCH",
        "CHANGELINK",
        "ADDLINK",
        "DELETELINK",
        "DELETECHAIN"
      ],
      "vertexType": "MolecularFragment"
    },
    {
      "lstAPs": [
        {
          "id": 2102598,
          "atomPositionNumber": 0,
          "atomPositionNumberInMol": -1,
          "apClass": {
            "rule": "ATplus",
            "subClass": 0,
            "bndTyp": "ANY"
          },
          "dirVec": {
            "x": 1.7498113878580424,
            "y": -1.5425521902462944,
            "z": -1.2670236023275012
          }
        }
      ],
      "lstSymAPs": [],
      "mol": {
        "atoms": [
          {
            "elSymbol": "ATP",
            "p3d": {
              "x": 1.7628208697291199,
              "y": -1.552524462044315,
              "z": -1.2539095954404926
            }
          }
        ],
        "bonds": []
      },
      "vertexId": 1191434,
      "buildingBlockId": 78,
      "buildingBlockType": "FRAGMENT",
      "isRCV": true,
      "properties": {
        "ATTACHMENT_POINTS": "1#ATplus:0:ANY:1.7498%-1.5426%-1.2670 ",
        "OLDVERTEXID": 203
      },
      "uniquefyingPropertyKeys": [],
      "allowedMutationTypes": [
        "DELETE",
        "EXTEND",
        "CHANGEBRANCH",
        "CHANGELINK",
        "ADDLINK",
        "DELETELINK",
        "DELETECHAIN"
      ],
      "vertexType": "MolecularFragment"
    },
    {
      "lstAPs": [
        {
          "id": 2102599,
          "atomPositionNumber": 0,
          "atomPositionNumberInMol": -1,
          "apClass": {
            "rule": "ATplus",
            "subClass": 0,
            "bndTyp": "ANY"
          },
          "dirVec": {
            "x": -1.623992272866726,
            "y": 1.694540172820501,
            "z": -1.2840127710767786
          }
        }
      ],
      "lstSymAPs": [],
      "mol": {
        "atoms": [
          {
            "elSymbol": "ATP",
            "p3d": {
              "x": -1.634914608334237,
              "y": 1.7068403796281795,
              "z": -1.2709713945994476
            }
          }
        ],
        "bonds": []
      },
      "vertexId": 1191435,
      "buildingBlockId": 78,
      "buildingBlockType": "FRAGMENT",
      "isRCV": true,
      "properties": {
        "ATTACHMENT_POINTS": "1#ATplus:0:ANY:-1.6240%1.6945%-1.2840 ",
        "OLDVERTEXID": 204
      },
      "uniquefyingPropertyKeys": [],
      "allowedMutationTypes": [
        "DELETE",
        "EXTEND",
        "CHANGEBRANCH",
        "CHANGELINK",
        "ADDLINK",
        "DELETELINK",
        "DELETECHAIN"
      ],
      "vertexType": "MolecularFragment"
    },
    {
      "lstAPs": [
        {
          "id": 2102600,
          "atomPositionNumber": 0,
          "atomPositionNumberInMol": -1,
          "apClass": {
            "rule": "Xlig",
            "subClass": 1,
            "bndTyp": "SINGLE"
          },
          "dirVec": {
            "x": -0.102,
            "y": 0.0185,
            "z": -1.0265
          }
        },
        {
          "id": 2102601,
          "atomPositionNumber": 0,
          "atomPositionNumberInMol": -1,
          "apClass": {
            "rule": "bridge",
            "subClass": 1,
            "bndTyp": "SINGLE"
          },
          "dirVec": {
            "x": -0.626,
            "y": 2.4866,
            "z": 0.7805
          }
        }
      ],
      "lstSymAPs": [],
      "mol": {
        "atoms": [
          {
            "elSymbol": "S",
            "p3d": {
              "x": -0.3267,
              "y": 2.3403,
              "z": -1.0022
            }
          }
        ],
        "bonds": []
      },
      "vertexId": 1191436,
      "buildingBlockId": 73,
      "buildingBlockType": "FRAGMENT",
      "isRCV": false,
      "properties": {
        "ATTACHMENT_POINTS": "1#Xlig:1:SINGLE:-0.1020%0.0185%-1.0265,bridge:1:SINGLE:-0.6260%2.4866%0.7805 ",
        "OLDVERTEXID": 708
      },
      "uniquefyingPropertyKeys": [],
      "allowedMutationTypes": [
        "DELETE",
        "EXTEND",
        "CHANGEBRANCH",
        "CHANGELINK",
        "ADDLINK",
        "DELETELINK",
        "DELETECHAIN"
      ],
      "vertexType": "MolecularFragment"
    },
    {
      "lstAPs": [
        {
          "id": 2102602,
          "atomPositionNumber": 0,
          "atomPositionNumberInMol": -1,
          "apClass": {
            "rule": "Xlig",
            "subClass": 1,
            "bndTyp": "SINGLE"
          },
          "dirVec": {
            "x": -0.102,
            "y": 0.0185,
            "z": -1.0265
          }
        },
        {
          "id": 2102603,
          "atomPositionNumber": 0,
          "atomPositionNumberInMol": -1,
          "apClass": {
            "rule": "bridge",
            "subClass": 1,
            "bndTyp": "SINGLE"
          },
          "dirVec": {
            "x": -0.626,
            "y": 2.4866,
            "z": 0.7805
          }
        }
      ],
      "lstSymAPs": [],
      "mol": {
        "atoms": [
          {
            "elSymbol": "S",
            "p3d": {
              "x": -0.3267,
              "y": 2.3403,
              "z": -1.0022
            }
          }
        ],
        "bonds": []
      },
      "vertexId": 1191437,
      "buildingBlockId": 73,
      "buildingBlockType": "FRAGMENT",
      "isRCV": false,
      "properties": {
        "ATTACHMENT_POINTS": "1#Xlig:1:SINGLE:-0.1020%0.0185%-1.0265,bridge:1:SINGLE:-0.6260%2.4866%0.7805 ",
        "OLDVERTEXID": 698
      },
      "uniquefyingPropertyKeys": [],
      "allowedMutationTypes": [
        "DELETE",
        "EXTEND",
        "CHANGEBRANCH",
        "CHANGELINK",
        "ADDLINK",
        "DELETELINK",
        "DELETECHAIN"
      ],
      "vertexType": "MolecularFragment"
    },
    {
      "lstAPs": [
        {
          "id": 2102604,
          "atomPositionNumber": 0,
          "atomPositionNumberInMol": -1,
          "apClass": {
            "rule": "bridge",
            "subClass": 0,
            "bndTyp": "SINGLE"
          },
          "dirVec": {
            "x": 2.2309,
            "y": 1.5817,
            "z": 0.6565999999999999
          }
        },
        {
          "id": 2102605,
          "atomPositionNumber": 4,
          "atomPositionNumberInMol": -1,
          "apClass": {
            "rule": "bridge",
            "subClass": 0,
            "bndTyp": "SINGLE"
          },
          "dirVec": {
            "x": 1.1795,
            "y": -0.8206,
            "z": 2.1815
          }
        }
      ],
      "lstSymAPs": [
        {
          "symIds": [
            0,
            1
          ]
        }
      ],
      "mol": {
        "atoms": [
          {
            "elSymbol": "C",
            "p3d": {
              "x": 1.4767,
              "y": 0.4111,
              "z": -0.0358
            }
          },
          {
            "elSymbol": "C",
            "p3d": {
              "x": 0.6064,
              "y": 0.7242,
              "z": -1.2721
            }
          },
          {
            "elSymbol": "C",
            "p3d": {
              "x": -0.3951,
              "y": -0.4594,
              "z": -1.3469
            }
          },
          {
            "elSymbol": "C",
            "p3d": {
              "x": -0.3076,
              "y": -1.2087,
              "z": 0.0097
            }
          },
          {
            "elSymbol": "C",
            "p3d": {
              "x": 0.4613,
              "y": -0.2385,
              "z": 0.9321
            }
          },
          {
            "elSymbol": "H",
            "p3d": {
              "x": 2.2245,
              "y": -0.3328,
              "z": -0.3416
            }
          },
          {
            "elSymbol": "H",
            "p3d": {
              "x": 0.0672,
              "y": 1.6663,
              "z": -1.1316
            }
          },
          {
            "elSymbol": "H",
            "p3d": {
              "x": 1.2126,
              "y": 0.798,
              "z": -2.1799
            }
          },
          {
            "elSymbol": "H",
            "p3d": {
              "x": -0.1332,
              "y": -1.1322,
              "z": -2.1707
            }
          },
          {
            "elSymbol": "H",
            "p3d": {
              "x": -1.4103,
              "y": -0.0853,
              "z": -1.5178
            }
          },
          {
            "elSymbol": "H",
            "p3d": {
              "x": 0.248,
              "y": -2.143,
              "z": -0.114
            }
          },
          {
            "elSymbol": "H",
            "p3d": {
              "x": -1.2998,
              "y": -1.4376,
              "z": 0.4073
            }
          },
          {
            "elSymbol": "H",
            "p3d": {
              "x": -0.2539,
              "y": 0.5182,
              "z": 1.28
            }
          }
        ],
        "bonds": [
          {
            "atomIds": [
              0,
              1
            ],
            "bo": "SINGLE"
          },
          {
            "atomIds": [
              1,
              2
            ],
            "bo": "SINGLE"
          },
          {
            "atomIds": [
              2,
              3
            ],
            "bo": "SINGLE"
          },
          {
            "atomIds": [
              3,
              4
            ],
            "bo": "SINGLE"
          },
          {
            "atomIds": [
              0,
              4
            ],
            "bo": "SINGLE"
          },
          {
            "atomIds": [
              0,
              5
            ],
            "bo": "SINGLE"
          },
          {
            "atomIds": [
              1,
              6
            ],
            "bo": "SINGLE"
          },
          {
            "atomIds": [
              1,
              7
            ],
            "bo": "SINGLE"
          },
          {
            "atomIds": [
              2,
              8
            ],
            "bo": "SINGLE"
          },
          {
            "atomIds": [
              2,
              9
            ],
            "bo": "SINGLE"
          },
          {
            "atomIds": [
              3,
              10
            ],
            "bo": "SINGLE"
          },
          {
            "atomIds": [
              3,
              11
            ],
            "bo": "SINGLE"
          },
          {
            "atomIds": [
              4,
              12
            ],
            "bo": "SINGLE"
          }
        ]
      },
      "vertexId": 1191438,
      "buildingBlockId": 69,
      "buildingBlockType": "FRAGMENT",
      "isRCV": false,
      "properties": {
        "ATTACHMENT_POINTS": "1#bridge:0:SINGLE:2.2309%1.5817%0.6566 5#bridge:0:SINGLE:1.1795%-0.8206%2.1815 ",
        "OLDVERTEXID": 21389
      },
      "uniquefyingPropertyKeys": [],
      "allowedMutationTypes": [
        "DELETE",
        "EXTEND",
        "CHANGEBRANCH",
        "CHANGELINK",
        "ADDLINK",
        "DELETELINK",
        "DELETECHAIN"
      ],
      "vertexType": "MolecularFragment"
    },
    {
      "lstAPs": [
        {
          "id": 2102606,
          "atomPositionNumber": 0,
          "atomPositionNumberInMol": -1,
          "apClass": {
            "rule": "bridge",
            "subClass": 0,
            "bndTyp": "SINGLE"
          },
          "dirVec": {
            "x": 2.2309,
            "y": 1.5817,
            "z": 0.6565999999999999
          }
        },
        {
          "id": 2102607,
          "atomPositionNumber": 4,
          "atomPositionNumberInMol": -1,
          "apClass": {
            "rule": "bridge",
            "subClass": 0,
            "bndTyp": "SINGLE"
          },
          "dirVec": {
            "x": 1.1795,
            "y": -0.8206,
            "z": 2.1815
          }
        }
      ],
      "lstSymAPs": [
        {
          "symIds": [
            0,
            1
          ]
        }
      ],
      "mol": {
        "atoms": [
          {
            "elSymbol": "C",
            "p3d": {
              "x": 1.4767,
              "y": 0.4111,
              "z": -0.0358
            }
          },
          {
            "elSymbol": "C",
            "p3d": {
              "x": 0.6064,
              "y": 0.7242,
              "z": -1.2721
            }
          },
          {
            "elSymbol": "C",
            "p3d": {
              "x": -0.3951,
              "y": -0.4594,
              "z": -1.3469
            }
          },
          {
            "elSymbol": "C",
            "p3d": {
              "x": -0.3076,
              "y": -1.2087,
              "z": 0.0097
            }
          },
          {
            "elSymbol": "C",
            "p3d": {
              "x": 0.4613,
              "y": -0.2385,
              "z": 0.9321
            }
          },
          {
            "elSymbol": "H",
            "p3d": {
              "x": 2.2245,
              "y": -0.3328,
              "z": -0.3416
            }
          },
          {
            "elSymbol": "H",
            "p3d": {
              "x": 0.0672,
              "y": 1.6663,
              "z": -1.1316
            }
          },
          {
            "elSymbol": "H",
            "p3d": {
              "x": 1.2126,
              "y": 0.798,
              "z": -2.1799
            }
          },
          {
            "elSymbol": "H",
            "p3d": {
              "x": -0.1332,
              "y": -1.1322,
              "z": -2.1707
            }
          },
          {
            "elSymbol": "H",
            "p3d": {
              "x": -1.4103,
              "y": -0.0853,
              "z": -1.5178
            }
          },
          {
            "elSymbol": "H",
            "p3d": {
              "x": 0.248,
              "y": -2.143,
              "z": -0.114
            }
          },
          {
            "elSymbol": "H",
            "p3d": {
              "x": -1.2998,
              "y": -1.4376,
              "z": 0.4073
            }
          },
          {
            "elSymbol": "H",
            "p3d": {
              "x": -0.2539,
              "y": 0.5182,
              "z": 1.28
            }
          }
        ],
        "bonds": [
          {
            "atomIds": [
              0,
              1
            ],
            "bo": "SINGLE"
          },
          {
            "atomIds": [
              1,
              2
            ],
            "bo": "SINGLE"
          },
          {
            "atomIds": [
              2,
              3
            ],
            "bo": "SINGLE"
          },
          {
            "atomIds": [
              3,
              4
            ],
            "bo": "SINGLE"
          },
          {
            "atomIds": [
              0,
              4
            ],
            "bo": "SINGLE"
          },
          {
            "atomIds": [
              0,
              5
            ],
            "bo": "SINGLE"
          },
          {
            "atomIds": [
              1,
              6
            ],
            "bo": "SINGLE"
          },
          {
            "atomIds": [
              1,
              7
            ],
            "bo": "SINGLE"
          },
          {
            "atomIds": [
              2,
              8
            ],
            "bo": "SINGLE"
          },
          {
            "atomIds": [
              2,
              9
            ],
            "bo": "SINGLE"
          },
          {
            "atomIds": [
              3,
              10
            ],
            "bo": "SINGLE"
          },
          {
            "atomIds": [
              3,
              11
            ],
            "bo": "SINGLE"
          },
          {
            "atomIds": [
              4,
              12
            ],
            "bo": "SINGLE"
          }
        ]
      },
      "vertexId": 1191439,
      "buildingBlockId": 69,
      "buildingBlockType": "FRAGMENT",
      "isRCV": false,
      "properties": {
        "ATTACHMENT_POINTS": "1#bridge:0:SINGLE:2.2309%1.5817%0.6566 5#bridge:0:SINGLE:1.1795%-0.8206%2.1815 ",
        "OLDVERTEXID": 21229
      },
      "uniquefyingPropertyKeys": [],
      "allowedMutationTypes": [
        "DELETE",
        "EXTEND",
        "CHANGEBRANCH",
        "CHANGELINK",
        "ADDLINK",
        "DELETELINK",
        "DELETECHAIN"
      ],
      "vertexType": "MolecularFragment"
    },
    {
      "lstAPs": [
        {
          "id": 2102608,
          "atomPositionNumber": 0,
          "atomPositionNumberInMol": -1,
          "apClass": {
            "rule": "ATminus",
            "subClass": 0,
            "bndTyp": "ANY"
          },
          "dirVec": {
            "x": 0.0109,
            "y": -0.0071,
            "z": 0.0026
          }
        }
      ],
      "lstSymAPs": [],
      "mol": {
        "atoms": [
          {
            "elSymbol": "ATM",
            "p3d": {
              "x": -0.0096,
              "y": 0.0045,
              "z": -0.0011
            }
          }
        ],
        "bonds": []
      },
      "vertexId": 1191440,
      "buildingBlockId": 79,
      "buildingBlockType": "FRAGMENT",
      "isRCV": true,
      "properties": {
        "ATTACHMENT_POINTS": "1#ATminus:0:ANY:0.0109%-0.0071%0.0026 ",
        "OLDVERTEXID": 1191044
      },
      "uniquefyingPropertyKeys": [],
      "allowedMutationTypes": [
        "DELETE",
        "EXTEND",
        "CHANGEBRANCH",
        "CHANGELINK",
        "ADDLINK",
        "DELETELINK",
        "DELETECHAIN"
      ],
      "vertexType": "MolecularFragment"
    },
    {
      "lstAPs": [
        {
          "id": 2102609,
          "atomPositionNumber": 0,
          "atomPositionNumberInMol": -1,
          "apClass": {
            "rule": "ATminus",
            "subClass": 0,
            "bndTyp": "ANY"
          },
          "dirVec": {
            "x": 0.0109,
            "y": -0.0071,
            "z": 0.0026
          }
        }
      ],
      "lstSymAPs": [],
      "mol": {
        "atoms": [
          {
            "elSymbol": "ATM",
            "p3d": {
              "x": -0.0096,
              "y": 0.0045,
              "z": -0.0011
            }
          }
        ],
        "bonds": []
      },
      "vertexId": 1191441,
      "buildingBlockId": 79,
      "buildingBlockType": "FRAGMENT",
      "isRCV": true,
      "properties": {
        "ATTACHMENT_POINTS": "1#ATminus:0:ANY:0.0109%-0.0071%0.0026 ",
        "OLDVERTEXID": 1191045
      },
      "uniquefyingPropertyKeys": [],
      "allowedMutationTypes": [
        "DELETE",
        "EXTEND",
        "CHANGEBRANCH",
        "CHANGELINK",
        "ADDLINK",
        "DELETELINK",
        "DELETECHAIN"
      ],
      "vertexType": "MolecularFragment"
    }
  ],
  "gEdges": [
    {
      "srcAPID": 2102594,
      "trgAPID": 2102595,
      "bondType": "SINGLE"
    },
    {
      "srcAPID": 2102596,
      "trgAPID": 2102598,
      "bondType": "SINGLE"
    },
    {
      "srcAPID": 2102597,
      "trgAPID": 2102599,
      "bondType": "SINGLE"
    },
    {
      "srcAPID": 2102593,
      "trgAPID": 2102600,
      "bondType": "SINGLE"
    },
    {
      "srcAPID": 2102592,
      "trgAPID": 2102602,
      "bondType": "SINGLE"
    },
    {
      "srcAPID": 2102603,
      "trgAPID": 2102604,
      "bondType": "SINGLE"
    },
    {
      "srcAPID": 2102601,
      "trgAPID": 2102606,
      "bondType": "SINGLE"
    },
    {
      "srcAPID": 2102605,
      "trgAPID": 2102608,
      "bondType": "SINGLE"
    },
    {
      "srcAPID": 2102607,
      "trgAPID": 2102609,
      "bondType": "SINGLE"
    }
  ],
  "gRings": [
    {
      "vertices": [
        1191434,
        1191433,
        1191432,
        1191437,
        1191438,
        1191440
      ],
      "bndTyp": "SINGLE"
    },
    {
      "vertices": [
        1191435,
        1191433,
        1191432,
        1191436,
        1191439,
        1191441
      ],
      "bndTyp": "SINGLE"
    }
  ],
  "symVertices": [
    {
      "symIds": [
        1191434,
        1191435
      ]
    },
    {
      "symIds": [
        1191436,
        1191437
      ]
    },
    {
      "symIds": [
        1191438,
        1191439
      ]
    },
    {
      "symIds": [
        1191440,
        1191441
      ]
    }
  ]
}

> <SMILES>
[Pt]12(C#O)[N]=3C(=C(C(=C(C3C4(C(C(C(C4([H])S1)([H])[H])([H])[H])([H])[H])[H])[H])[H])[H])C5(C(C(C(C5([H])S2)([H])[H])([H])[H])([H])[H])[H]

$$$$
