M20004067
  CDK     05042206503D

 30 32  0  0  0  0  0  0  0  0999 V2000
   -1.8925   -0.0374    1.0140 Pt  0  0  0  0  0  0  0  0  0  0  0  0
   -3.8440    0.0452    1.1794 C   0  0  0  0  0  0  0  0  0  0  0  0
   -4.9814    0.1078    1.2488 O   0  0  0  0  0  0  0  0  0  0  0  0
    1.7230    0.7228   -1.3829 C   0  0  0  0  0  0  0  0  0  0  0  0
    2.7805    0.9947   -1.1556 H   0  0  0  0  0  0  0  0  0  0  0  0
    1.4705    1.1950   -2.3582 H   0  0  0  0  0  0  0  0  0  0  0  0
    1.5647   -0.8196   -1.4727 C   0  0  0  0  0  0  0  0  0  0  0  0
    0.8884   -1.0888   -2.3144 H   0  0  0  0  0  0  0  0  0  0  0  0
    2.5509   -1.2914   -1.6909 H   0  0  0  0  0  0  0  0  0  0  0  0
    0.8234    1.2197   -0.3167 N   0  0  2  0  0  0  0  0  0  0  0  0
    1.1018   -1.3816   -0.1595 N   0  0  1  0  0  0  0  0  0  0  0  0
    0.3572   -0.0625    0.7517 P   0  0  0  0  0  0  0  0  0  0  0  0
    1.2691    0.0398    2.3712 C   0  0  0  0  0  0  0  0  0  0  0  0
    2.3578    0.0215    2.2257 H   0  0  0  0  0  0  0  0  0  0  0  0
    1.0047   -0.8083    3.0219 H   0  0  0  0  0  0  0  0  0  0  0  0
    1.0077    0.9652    2.9089 H   0  0  0  0  0  0  0  0  0  0  0  0
   -2.1380   -2.3534    0.8273 S   0  0  0  0  0  0  0  0  0  0  0  0
   -1.0913   -2.6538   -0.6326 C   0  0  0  0  0  0  0  0  0  0  0  0
    0.3804   -2.6818   -0.2248 C   0  0  0  0  0  0  0  0  0  0  0  0
   -1.3105   -1.9114   -1.4206 H   0  0  0  0  0  0  0  0  0  0  0  0
   -1.3973   -3.6362   -1.0458 H   0  0  0  0  0  0  0  0  0  0  0  0
    0.4994   -3.1627    0.7816 H   0  0  0  0  0  0  0  0  0  0  0  0
    0.9483   -3.3400   -0.9267 H   0  0  0  0  0  0  0  0  0  0  0  0
   -1.9159    2.2904    1.2711 S   0  0  0  0  0  0  0  0  0  0  0  0
   -1.1442    2.7605   -0.3112 C   0  0  0  0  0  0  0  0  0  0  0  0
    0.3773    2.6253   -0.2226 C   0  0  0  0  0  0  0  0  0  0  0  0
   -1.4294    3.8111   -0.5145 H   0  0  0  0  0  0  0  0  0  0  0  0
   -1.5695    2.1515   -1.1310 H   0  0  0  0  0  0  0  0  0  0  0  0
    0.8535    3.2029   -1.0498 H   0  0  0  0  0  0  0  0  0  0  0  0
    0.7553    3.0754    0.7288 H   0  0  0  0  0  0  0  0  0  0  0  0
  2  3  3  0  0  0  0
  1  2  1  0  0  0  0
  4  5  1  0  0  0  0
  4 10  1  0  0  0  0
  6  4  1  0  0  0  0
  7  4  1  0  0  0  0
  8  7  1  0  0  0  0
  9  7  1  0  0  0  0
 10 12  1  0  0  0  0
 11  7  1  0  0  0  0
 11 12  1  0  0  0  0
  1 12  1  0  0  0  0
 14 13  1  0  0  0  0
 15 13  1  0  0  0  0
 16 13  1  0  0  0  0
 12 13  1  0  0  0  0
  1 17  1  0  0  0  0
 18 19  1  0  0  0  0
 18 20  1  0  0  0  0
 18 21  1  0  0  0  0
 19 22  1  0  0  0  0
 19 23  1  0  0  0  0
 17 18  1  0  0  0  0
  1 24  1  0  0  0  0
 25 26  1  0  0  0  0
 25 27  1  0  0  0  0
 25 28  1  0  0  0  0
 26 29  1  0  0  0  0
 26 30  1  0  0  0  0
 24 25  1  0  0  0  0
 11 19  1  0  0  0  0
 10 26  1  0  0  0  0
M  END
> <PM6_ENERGY>
-167.617

> <UID>
XJYOHFCNTASSOG-SHTSTLMLNA-L

> <FITNESS>
1.14123

> <GCODE>
10018

> <GraphENC>
10018 508683_1_0,508684_2_1,508685_79_1,508686_79_1,508687_74_1,508688_74_1,508689_2_2,508690_66_1,508691_66_1,508692_80_1,508693_80_1, 508683_2_508684_3_SINGLE_scaff:0_MBisAminoPhosphine:1,508684_1_508685_0_SINGLE_LCycloBisAminoPhosphineSubN:0_ATplus:0,508684_0_508686_0_SINGLE_LCycloBisAminoPhosphineSubN:0_ATplus:0,508683_1_508687_0_SINGLE_Xlig:0_Xlig:1,508683_0_508688_0_SINGLE_Xlig:0_Xlig:1,508684_2_508689_0_SINGLE_LBisAminoPhosphineSubR:0_me:1,508688_1_508690_1_SINGLE_bridge:1_bridge:0,508687_1_508691_1_SINGLE_bridge:1_bridge:0,508690_0_508692_0_SINGLE_bridge:0_ATminus:0,508691_0_508693_0_SINGLE_bridge:0_ATminus:0, DENOPTIMRing [vertices=[508685_79_1, 508684_2_1, 508683_1_0, 508687_74_1, 508691_66_1, 508693_80_1]] DENOPTIMRing [vertices=[508686_79_1, 508684_2_1, 508683_1_0, 508688_74_1, 508690_66_1, 508692_80_1]] SymmetricSet [symIds=[508685, 508686]] SymmetricSet [symIds=[508687, 508688]] SymmetricSet [symIds=[508690, 508691]] SymmetricSet [symIds=[508692, 508693]] 

> <GraphJson>
{
  "graphId": 10018,
  "gVertices": [
    {
      "lstAPs": [
        {
          "id": 848610,
          "atomPositionNumber": 0,
          "atomPositionNumberInMol": -1,
          "apClass": {
            "rule": "Xlig",
            "subClass": 0,
            "bndTyp": "SINGLE"
          },
          "dirVec": {
            "x": -2.3339,
            "y": -0.0087,
            "z": 0.8172
          }
        },
        {
          "id": 848611,
          "atomPositionNumber": 0,
          "atomPositionNumberInMol": -1,
          "apClass": {
            "rule": "Xlig",
            "subClass": 0,
            "bndTyp": "SINGLE"
          },
          "dirVec": {
            "x": 2.336,
            "y": -5.0E-4,
            "z": 0.829
          }
        },
        {
          "id": 848612,
          "atomPositionNumber": 0,
          "atomPositionNumberInMol": -1,
          "apClass": {
            "rule": "scaff",
            "subClass": 0,
            "bndTyp": "SINGLE"
          },
          "dirVec": {
            "x": -0.0095,
            "y": 0.0046,
            "z": -1.7113
          }
        }
      ],
      "lstSymAPs": [
        {
          "symIds": [
            0,
            1
          ]
        }
      ],
      "mol": {
        "atoms": [
          {
            "elSymbol": "Pt",
            "p3d": {
              "x": -0.0098,
              "y": 0.0049,
              "z": 0.6289
            }
          },
          {
            "elSymbol": "C",
            "p3d": {
              "x": -6.0E-4,
              "y": 0.0016,
              "z": 2.5609
            }
          },
          {
            "elSymbol": "O",
            "p3d": {
              "x": 0.0025,
              "y": -0.0041,
              "z": 3.6974
            }
          },
          {
            "elSymbol": "Du",
            "p3d": {
              "x": -0.007,
              "y": 1.0013,
              "z": 0.6372
            }
          },
          {
            "elSymbol": "Du",
            "p3d": {
              "x": -0.0014,
              "y": 0.9902,
              "z": 2.5698
            }
          }
        ],
        "bonds": [
          {
            "atomIds": [
              1,
              2
            ],
            "bo": "TRIPLE"
          },
          {
            "atomIds": [
              0,
              1
            ],
            "bo": "SINGLE"
          },
          {
            "atomIds": [
              3,
              0
            ],
            "bo": "SINGLE"
          },
          {
            "atomIds": [
              4,
              1
            ],
            "bo": "SINGLE"
          }
        ]
      },
      "vertexId": 508683,
      "buildingBlockId": 0,
      "buildingBlockType": "SCAFFOLD",
      "isRCV": false,
      "properties": {
        "ATTACHMENT_POINTS": "1#Xlig:0:SINGLE:-2.3339%-0.0087%0.8172,Xlig:0:SINGLE:2.3360%-0.0005%0.8290,scaff:0:SINGLE:-0.0095%0.0046%-1.7113 ",
        "OLDVERTEXID": 161
      },
      "uniquefyingPropertyKeys": [],
      "allowedMutationTypes": [
        "DELETE",
        "EXTEND",
        "CHANGEBRANCH",
        "CHANGELINK",
        "ADDLINK",
        "DELETELINK",
        "DELETECHAIN"
      ],
      "vertexType": "MolecularFragment"
    },
    {
      "lstAPs": [
        {
          "id": 848613,
          "atomPositionNumber": 6,
          "atomPositionNumberInMol": -1,
          "apClass": {
            "rule": "LCycloBisAminoPhosphineSubN",
            "subClass": 0,
            "bndTyp": "SINGLE"
          },
          "dirVec": {
            "x": 2.4643006755553873,
            "y": 1.2468716069052097,
            "z": -1.9747445793829592
          }
        },
        {
          "id": 848614,
          "atomPositionNumber": 7,
          "atomPositionNumberInMol": -1,
          "apClass": {
            "rule": "LCycloBisAminoPhosphineSubN",
            "subClass": 0,
            "bndTyp": "SINGLE"
          },
          "dirVec": {
            "x": -2.667318572597261,
            "y": 0.7861314432966159,
            "z": -2.257537266040838
          }
        },
        {
          "id": 848615,
          "atomPositionNumber": 8,
          "atomPositionNumberInMol": -1,
          "apClass": {
            "rule": "LBisAminoPhosphineSubR",
            "subClass": 0,
            "bndTyp": "SINGLE"
          },
          "dirVec": {
            "x": -0.039239605339551384,
            "y": -1.7383442342568314,
            "z": -2.2805275965891076
          }
        },
        {
          "id": 848616,
          "atomPositionNumber": 8,
          "atomPositionNumberInMol": -1,
          "apClass": {
            "rule": "MBisAminoPhosphine",
            "subClass": 1,
            "bndTyp": "SINGLE"
          },
          "dirVec": {
            "x": -0.009790409017403273,
            "y": 0.004890409017403152,
            "z": 0.5540839417569379
          }
        }
      ],
      "lstSymAPs": [
        {
          "symIds": [
            0,
            1
          ]
        }
      ],
      "mol": {
        "atoms": [
          {
            "elSymbol": "C",
            "p3d": {
              "x": 0.695923955864642,
              "y": 1.301301510383336,
              "z": -3.786275761246294
            }
          },
          {
            "elSymbol": "H",
            "p3d": {
              "x": 0.7890953912753949,
              "y": 0.5398623367073316,
              "z": -4.559843863235449
            }
          },
          {
            "elSymbol": "H",
            "p3d": {
              "x": 1.2369865388567785,
              "y": 2.19869356939361,
              "z": -4.092313199660583
            }
          },
          {
            "elSymbol": "C",
            "p3d": {
              "x": -0.767092363402958,
              "y": 1.6305799666394032,
              "z": -3.560861924487552
            }
          },
          {
            "elSymbol": "H",
            "p3d": {
              "x": -0.8976241855742316,
              "y": 2.692197960691883,
              "z": -3.2742071179612435
            }
          },
          {
            "elSymbol": "H",
            "p3d": {
              "x": -1.3437529063162965,
              "y": 1.4776908163419515,
              "z": -4.4700755935270235
            }
          },
          {
            "elSymbol": "N",
            "p3d": {
              "x": 1.1855492631593463,
              "y": 0.8099717319400803,
              "z": -2.4687619824676914
            }
          },
          {
            "elSymbol": "N",
            "p3d": {
              "x": -1.2551557284633874,
              "y": 0.759938171703057,
              "z": -2.487367538570274
            }
          },
          {
            "elSymbol": "P",
            "p3d": {
              "x": -0.009509590982596726,
              "y": 0.004609590982596848,
              "z": -1.636483941756938
            }
          }
        ],
        "bonds": [
          {
            "atomIds": [
              0,
              1
            ],
            "bo": "SINGLE"
          },
          {
            "atomIds": [
              0,
              6
            ],
            "bo": "SINGLE"
          },
          {
            "atomIds": [
              2,
              0
            ],
            "bo": "SINGLE"
          },
          {
            "atomIds": [
              3,
              0
            ],
            "bo": "SINGLE"
          },
          {
            "atomIds": [
              4,
              3
            ],
            "bo": "SINGLE"
          },
          {
            "atomIds": [
              5,
              3
            ],
            "bo": "SINGLE"
          },
          {
            "atomIds": [
              6,
              8
            ],
            "bo": "SINGLE"
          },
          {
            "atomIds": [
              7,
              3
            ],
            "bo": "SINGLE"
          },
          {
            "atomIds": [
              7,
              8
            ],
            "bo": "SINGLE"
          }
        ]
      },
      "vertexId": 508684,
      "buildingBlockId": 1,
      "buildingBlockType": "FRAGMENT",
      "isRCV": false,
      "properties": {
        "ATTACHMENT_POINTS": "7#LCycloBisAminoPhosphineSubN:0:SINGLE:2.4643%1.2469%-1.9747 8#LCycloBisAminoPhosphineSubN:0:SINGLE:-2.6673%0.7861%-2.2575 9#LBisAminoPhosphineSubR:0:SINGLE:-0.0392%-1.7383%-2.2805,MBisAminoPhosphine:1:SINGLE:-0.0098%0.0049%0.5541 ",
        "OLDVERTEXID": 162
      },
      "uniquefyingPropertyKeys": [],
      "allowedMutationTypes": [
        "DELETE",
        "EXTEND",
        "CHANGEBRANCH",
        "CHANGELINK",
        "ADDLINK",
        "DELETELINK",
        "DELETECHAIN"
      ],
      "vertexType": "MolecularFragment"
    },
    {
      "lstAPs": [
        {
          "id": 848617,
          "atomPositionNumber": 0,
          "atomPositionNumberInMol": -1,
          "apClass": {
            "rule": "ATplus",
            "subClass": 0,
            "bndTyp": "ANY"
          },
          "dirVec": {
            "x": -2.667318572597261,
            "y": 0.7861314432966159,
            "z": -2.257537266040838
          }
        }
      ],
      "lstSymAPs": [],
      "mol": {
        "atoms": [
          {
            "elSymbol": "ATP",
            "p3d": {
              "x": -2.688034629340082,
              "y": 0.786515691687562,
              "z": -2.2541657165154305
            }
          }
        ],
        "bonds": []
      },
      "vertexId": 508685,
      "buildingBlockId": 78,
      "buildingBlockType": "FRAGMENT",
      "isRCV": true,
      "properties": {
        "ATTACHMENT_POINTS": "1#ATplus:0:ANY:-2.6673%0.7861%-2.2575 ",
        "OLDVERTEXID": 163
      },
      "uniquefyingPropertyKeys": [],
      "allowedMutationTypes": [
        "DELETE",
        "EXTEND",
        "CHANGEBRANCH",
        "CHANGELINK",
        "ADDLINK",
        "DELETELINK",
        "DELETECHAIN"
      ],
      "vertexType": "MolecularFragment"
    },
    {
      "lstAPs": [
        {
          "id": 848618,
          "atomPositionNumber": 0,
          "atomPositionNumberInMol": -1,
          "apClass": {
            "rule": "ATplus",
            "subClass": 0,
            "bndTyp": "ANY"
          },
          "dirVec": {
            "x": 2.4643006755553873,
            "y": 1.2468716069052097,
            "z": -1.9747445793829592
          }
        }
      ],
      "lstSymAPs": [],
      "mol": {
        "atoms": [
          {
            "elSymbol": "ATP",
            "p3d": {
              "x": 2.4829577276549566,
              "y": 1.2532459996530905,
              "z": -1.9675368388181411
            }
          }
        ],
        "bonds": []
      },
      "vertexId": 508686,
      "buildingBlockId": 78,
      "buildingBlockType": "FRAGMENT",
      "isRCV": true,
      "properties": {
        "ATTACHMENT_POINTS": "1#ATplus:0:ANY:2.4643%1.2469%-1.9747 ",
        "OLDVERTEXID": 164
      },
      "uniquefyingPropertyKeys": [],
      "allowedMutationTypes": [
        "DELETE",
        "EXTEND",
        "CHANGEBRANCH",
        "CHANGELINK",
        "ADDLINK",
        "DELETELINK",
        "DELETECHAIN"
      ],
      "vertexType": "MolecularFragment"
    },
    {
      "lstAPs": [
        {
          "id": 848619,
          "atomPositionNumber": 0,
          "atomPositionNumberInMol": -1,
          "apClass": {
            "rule": "Xlig",
            "subClass": 1,
            "bndTyp": "SINGLE"
          },
          "dirVec": {
            "x": -0.102,
            "y": 0.0185,
            "z": -1.0265
          }
        },
        {
          "id": 848620,
          "atomPositionNumber": 0,
          "atomPositionNumberInMol": -1,
          "apClass": {
            "rule": "bridge",
            "subClass": 1,
            "bndTyp": "SINGLE"
          },
          "dirVec": {
            "x": -0.626,
            "y": 2.4866,
            "z": 0.7805
          }
        }
      ],
      "lstSymAPs": [],
      "mol": {
        "atoms": [
          {
            "elSymbol": "S",
            "p3d": {
              "x": -0.3267,
              "y": 2.3403,
              "z": -1.0022
            }
          }
        ],
        "bonds": []
      },
      "vertexId": 508687,
      "buildingBlockId": 73,
      "buildingBlockType": "FRAGMENT",
      "isRCV": false,
      "properties": {
        "ATTACHMENT_POINTS": "1#Xlig:1:SINGLE:-0.1020%0.0185%-1.0265,bridge:1:SINGLE:-0.6260%2.4866%0.7805 ",
        "OLDVERTEXID": 1525
      },
      "uniquefyingPropertyKeys": [],
      "allowedMutationTypes": [
        "DELETE",
        "EXTEND",
        "CHANGEBRANCH",
        "CHANGELINK",
        "ADDLINK",
        "DELETELINK",
        "DELETECHAIN"
      ],
      "vertexType": "MolecularFragment"
    },
    {
      "lstAPs": [
        {
          "id": 848621,
          "atomPositionNumber": 0,
          "atomPositionNumberInMol": -1,
          "apClass": {
            "rule": "Xlig",
            "subClass": 1,
            "bndTyp": "SINGLE"
          },
          "dirVec": {
            "x": -0.102,
            "y": 0.0185,
            "z": -1.0265
          }
        },
        {
          "id": 848622,
          "atomPositionNumber": 0,
          "atomPositionNumberInMol": -1,
          "apClass": {
            "rule": "bridge",
            "subClass": 1,
            "bndTyp": "SINGLE"
          },
          "dirVec": {
            "x": -0.626,
            "y": 2.4866,
            "z": 0.7805
          }
        }
      ],
      "lstSymAPs": [],
      "mol": {
        "atoms": [
          {
            "elSymbol": "S",
            "p3d": {
              "x": -0.3267,
              "y": 2.3403,
              "z": -1.0022
            }
          }
        ],
        "bonds": []
      },
      "vertexId": 508688,
      "buildingBlockId": 73,
      "buildingBlockType": "FRAGMENT",
      "isRCV": false,
      "properties": {
        "ATTACHMENT_POINTS": "1#Xlig:1:SINGLE:-0.1020%0.0185%-1.0265,bridge:1:SINGLE:-0.6260%2.4866%0.7805 ",
        "OLDVERTEXID": 1506
      },
      "uniquefyingPropertyKeys": [],
      "allowedMutationTypes": [
        "DELETE",
        "EXTEND",
        "CHANGEBRANCH",
        "CHANGELINK",
        "ADDLINK",
        "DELETELINK",
        "DELETECHAIN"
      ],
      "vertexType": "MolecularFragment"
    },
    {
      "lstAPs": [
        {
          "id": 848623,
          "atomPositionNumber": 0,
          "atomPositionNumberInMol": -1,
          "apClass": {
            "rule": "me",
            "subClass": 1,
            "bndTyp": "SINGLE"
          },
          "dirVec": {
            "x": 6.4052,
            "y": 0.4666,
            "z": 7.6784
          }
        }
      ],
      "lstSymAPs": [],
      "mol": {
        "atoms": [
          {
            "elSymbol": "C",
            "p3d": {
              "x": 5.1845,
              "y": -0.3158,
              "z": 7.9034
            }
          },
          {
            "elSymbol": "H",
            "p3d": {
              "x": 4.4018,
              "y": 0.0156,
              "z": 7.2277
            }
          },
          {
            "elSymbol": "H",
            "p3d": {
              "x": 4.8466,
              "y": -0.2064,
              "z": 8.9326
            }
          },
          {
            "elSymbol": "H",
            "p3d": {
              "x": 5.4032,
              "y": -1.3837,
              "z": 7.7252
            }
          }
        ],
        "bonds": [
          {
            "atomIds": [
              1,
              0
            ],
            "bo": "SINGLE"
          },
          {
            "atomIds": [
              2,
              0
            ],
            "bo": "SINGLE"
          },
          {
            "atomIds": [
              3,
              0
            ],
            "bo": "SINGLE"
          }
        ]
      },
      "vertexId": 508689,
      "buildingBlockId": 1,
      "buildingBlockType": "CAP",
      "isRCV": false,
      "properties": {
        "ATTACHMENT_POINTS": "1#me:1:SINGLE:6.4052%0.4666%7.6784 ",
        "OLDVERTEXID": 1518
      },
      "uniquefyingPropertyKeys": [],
      "allowedMutationTypes": [
        "DELETE",
        "EXTEND",
        "CHANGEBRANCH",
        "CHANGELINK",
        "ADDLINK",
        "DELETELINK",
        "DELETECHAIN"
      ],
      "vertexType": "MolecularFragment"
    },
    {
      "lstAPs": [
        {
          "id": 848624,
          "atomPositionNumber": 1,
          "atomPositionNumberInMol": -1,
          "apClass": {
            "rule": "bridge",
            "subClass": 0,
            "bndTyp": "SINGLE"
          },
          "dirVec": {
            "x": 0.4112,
            "y": -1.2101,
            "z": -0.19930000000000003
          }
        },
        {
          "id": 848625,
          "atomPositionNumber": 0,
          "atomPositionNumberInMol": -1,
          "apClass": {
            "rule": "bridge",
            "subClass": 0,
            "bndTyp": "SINGLE"
          },
          "dirVec": {
            "x": 0.41179999999999994,
            "y": 1.21,
            "z": -0.19930000000000003
          }
        }
      ],
      "lstSymAPs": [
        {
          "symIds": [
            0,
            1
          ]
        }
      ],
      "mol": {
        "atoms": [
          {
            "elSymbol": "C",
            "p3d": {
              "x": -1.0414,
              "y": 0.7696,
              "z": 0.0732
            }
          },
          {
            "elSymbol": "C",
            "p3d": {
              "x": -1.0417,
              "y": -0.7693,
              "z": 0.0732
            }
          },
          {
            "elSymbol": "H",
            "p3d": {
              "x": -1.6983,
              "y": 1.1431,
              "z": -0.7123
            }
          },
          {
            "elSymbol": "H",
            "p3d": {
              "x": -1.369,
              "y": 1.143,
              "z": 1.0434
            }
          },
          {
            "elSymbol": "H",
            "p3d": {
              "x": -1.3695,
              "y": -1.1425,
              "z": 1.0434
            }
          },
          {
            "elSymbol": "H",
            "p3d": {
              "x": -1.6988,
              "y": -1.1424,
              "z": -0.7123
            }
          }
        ],
        "bonds": [
          {
            "atomIds": [
              0,
              1
            ],
            "bo": "SINGLE"
          },
          {
            "atomIds": [
              0,
              2
            ],
            "bo": "SINGLE"
          },
          {
            "atomIds": [
              0,
              3
            ],
            "bo": "SINGLE"
          },
          {
            "atomIds": [
              1,
              4
            ],
            "bo": "SINGLE"
          },
          {
            "atomIds": [
              1,
              5
            ],
            "bo": "SINGLE"
          }
        ]
      },
      "vertexId": 508690,
      "buildingBlockId": 65,
      "buildingBlockType": "FRAGMENT",
      "isRCV": false,
      "properties": {
        "ATTACHMENT_POINTS": "1#bridge:0:SINGLE:0.4118%1.2100%-0.1993 2#bridge:0:SINGLE:0.4112%-1.2101%-0.1993 ",
        "OLDVERTEXID": 37632
      },
      "uniquefyingPropertyKeys": [],
      "allowedMutationTypes": [
        "DELETE",
        "EXTEND",
        "CHANGEBRANCH",
        "CHANGELINK",
        "ADDLINK",
        "DELETELINK",
        "DELETECHAIN"
      ],
      "vertexType": "MolecularFragment"
    },
    {
      "lstAPs": [
        {
          "id": 848626,
          "atomPositionNumber": 1,
          "atomPositionNumberInMol": -1,
          "apClass": {
            "rule": "bridge",
            "subClass": 0,
            "bndTyp": "SINGLE"
          },
          "dirVec": {
            "x": 0.4112,
            "y": -1.2101,
            "z": -0.19930000000000003
          }
        },
        {
          "id": 848627,
          "atomPositionNumber": 0,
          "atomPositionNumberInMol": -1,
          "apClass": {
            "rule": "bridge",
            "subClass": 0,
            "bndTyp": "SINGLE"
          },
          "dirVec": {
            "x": 0.41179999999999994,
            "y": 1.21,
            "z": -0.19930000000000003
          }
        }
      ],
      "lstSymAPs": [
        {
          "symIds": [
            0,
            1
          ]
        }
      ],
      "mol": {
        "atoms": [
          {
            "elSymbol": "C",
            "p3d": {
              "x": -1.0414,
              "y": 0.7696,
              "z": 0.0732
            }
          },
          {
            "elSymbol": "C",
            "p3d": {
              "x": -1.0417,
              "y": -0.7693,
              "z": 0.0732
            }
          },
          {
            "elSymbol": "H",
            "p3d": {
              "x": -1.6983,
              "y": 1.1431,
              "z": -0.7123
            }
          },
          {
            "elSymbol": "H",
            "p3d": {
              "x": -1.369,
              "y": 1.143,
              "z": 1.0434
            }
          },
          {
            "elSymbol": "H",
            "p3d": {
              "x": -1.3695,
              "y": -1.1425,
              "z": 1.0434
            }
          },
          {
            "elSymbol": "H",
            "p3d": {
              "x": -1.6988,
              "y": -1.1424,
              "z": -0.7123
            }
          }
        ],
        "bonds": [
          {
            "atomIds": [
              0,
              1
            ],
            "bo": "SINGLE"
          },
          {
            "atomIds": [
              0,
              2
            ],
            "bo": "SINGLE"
          },
          {
            "atomIds": [
              0,
              3
            ],
            "bo": "SINGLE"
          },
          {
            "atomIds": [
              1,
              4
            ],
            "bo": "SINGLE"
          },
          {
            "atomIds": [
              1,
              5
            ],
            "bo": "SINGLE"
          }
        ]
      },
      "vertexId": 508691,
      "buildingBlockId": 65,
      "buildingBlockType": "FRAGMENT",
      "isRCV": false,
      "properties": {
        "ATTACHMENT_POINTS": "1#bridge:0:SINGLE:0.4118%1.2100%-0.1993 2#bridge:0:SINGLE:0.4112%-1.2101%-0.1993 ",
        "OLDVERTEXID": 37587
      },
      "uniquefyingPropertyKeys": [],
      "allowedMutationTypes": [
        "DELETE",
        "EXTEND",
        "CHANGEBRANCH",
        "CHANGELINK",
        "ADDLINK",
        "DELETELINK",
        "DELETECHAIN"
      ],
      "vertexType": "MolecularFragment"
    },
    {
      "lstAPs": [
        {
          "id": 848628,
          "atomPositionNumber": 0,
          "atomPositionNumberInMol": -1,
          "apClass": {
            "rule": "ATminus",
            "subClass": 0,
            "bndTyp": "ANY"
          },
          "dirVec": {
            "x": 0.0109,
            "y": -0.0071,
            "z": 0.0026
          }
        }
      ],
      "lstSymAPs": [],
      "mol": {
        "atoms": [
          {
            "elSymbol": "ATM",
            "p3d": {
              "x": -0.0096,
              "y": 0.0045,
              "z": -0.0011
            }
          }
        ],
        "bonds": []
      },
      "vertexId": 508692,
      "buildingBlockId": 79,
      "buildingBlockType": "FRAGMENT",
      "isRCV": true,
      "properties": {
        "ATTACHMENT_POINTS": "1#ATminus:0:ANY:0.0109%-0.0071%0.0026 ",
        "OLDVERTEXID": 508364
      },
      "uniquefyingPropertyKeys": [],
      "allowedMutationTypes": [
        "DELETE",
        "EXTEND",
        "CHANGEBRANCH",
        "CHANGELINK",
        "ADDLINK",
        "DELETELINK",
        "DELETECHAIN"
      ],
      "vertexType": "MolecularFragment"
    },
    {
      "lstAPs": [
        {
          "id": 848629,
          "atomPositionNumber": 0,
          "atomPositionNumberInMol": -1,
          "apClass": {
            "rule": "ATminus",
            "subClass": 0,
            "bndTyp": "ANY"
          },
          "dirVec": {
            "x": 0.0109,
            "y": -0.0071,
            "z": 0.0026
          }
        }
      ],
      "lstSymAPs": [],
      "mol": {
        "atoms": [
          {
            "elSymbol": "ATM",
            "p3d": {
              "x": -0.0096,
              "y": 0.0045,
              "z": -0.0011
            }
          }
        ],
        "bonds": []
      },
      "vertexId": 508693,
      "buildingBlockId": 79,
      "buildingBlockType": "FRAGMENT",
      "isRCV": true,
      "properties": {
        "ATTACHMENT_POINTS": "1#ATminus:0:ANY:0.0109%-0.0071%0.0026 ",
        "OLDVERTEXID": 508366
      },
      "uniquefyingPropertyKeys": [],
      "allowedMutationTypes": [
        "DELETE",
        "EXTEND",
        "CHANGEBRANCH",
        "CHANGELINK",
        "ADDLINK",
        "DELETELINK",
        "DELETECHAIN"
      ],
      "vertexType": "MolecularFragment"
    }
  ],
  "gEdges": [
    {
      "srcAPID": 848612,
      "trgAPID": 848616,
      "bondType": "SINGLE"
    },
    {
      "srcAPID": 848614,
      "trgAPID": 848617,
      "bondType": "SINGLE"
    },
    {
      "srcAPID": 848613,
      "trgAPID": 848618,
      "bondType": "SINGLE"
    },
    {
      "srcAPID": 848611,
      "trgAPID": 848619,
      "bondType": "SINGLE"
    },
    {
      "srcAPID": 848610,
      "trgAPID": 848621,
      "bondType": "SINGLE"
    },
    {
      "srcAPID": 848615,
      "trgAPID": 848623,
      "bondType": "SINGLE"
    },
    {
      "srcAPID": 848622,
      "trgAPID": 848625,
      "bondType": "SINGLE"
    },
    {
      "srcAPID": 848620,
      "trgAPID": 848627,
      "bondType": "SINGLE"
    },
    {
      "srcAPID": 848624,
      "trgAPID": 848628,
      "bondType": "SINGLE"
    },
    {
      "srcAPID": 848626,
      "trgAPID": 848629,
      "bondType": "SINGLE"
    }
  ],
  "gRings": [
    {
      "vertices": [
        508685,
        508684,
        508683,
        508687,
        508691,
        508693
      ],
      "bndTyp": "SINGLE"
    },
    {
      "vertices": [
        508686,
        508684,
        508683,
        508688,
        508690,
        508692
      ],
      "bndTyp": "SINGLE"
    }
  ],
  "symVertices": [
    {
      "symIds": [
        508685,
        508686
      ]
    },
    {
      "symIds": [
        508687,
        508688
      ]
    },
    {
      "symIds": [
        508690,
        508691
      ]
    },
    {
      "symIds": [
        508692,
        508693
      ]
    }
  ]
}

> <SMILES>
[Pt]12(C#O)[P]3(N(C([H])([H])C([H])([H])N3C(C([H])([H])S1)([H])[H])C(C([H])([H])S2)([H])[H])C([H])([H])[H]

$$$$
