M20000448
  CDK     05042206333D

 46 50  0  0  0  0  0  0  0  0999 V2000
   -0.0145   -0.0101    1.9693 Pt  0  0  0  0  0  0  0  0  0  0  0  0
   -0.0288   -0.0196    3.8923 C   0  0  0  0  0  0  0  0  0  0  0  0
   -0.0372   -0.0253    5.0381 O   0  0  0  0  0  0  0  0  0  0  0  0
   -0.0907   -1.1184   -0.8250 N   0  0  2  0  0  0  0  0  0  0  0  0
    0.0002    0.0002   -0.0427 C   0  0  0  0  0  0  0  0  0  0  0  0
    0.1023    1.1266   -0.8122 N   0  0  2  0  0  0  0  0  0  0  0  0
    0.0649    0.7846   -2.2738 C   0  0  0  0  0  0  0  0  0  0  0  0
   -0.0323   -0.7614   -2.2824 C   0  0  0  0  0  0  0  0  0  0  0  0
    0.9816    1.1506   -2.7780 H   0  0  0  0  0  0  0  0  0  0  0  0
   -0.9418   -1.1223   -2.8034 H   0  0  0  0  0  0  0  0  0  0  0  0
    0.8522   -1.2259   -2.7635 H   0  0  0  0  0  0  0  0  0  0  0  0
   -0.8127    1.2539   -2.7627 H   0  0  0  0  0  0  0  0  0  0  0  0
   -0.4869   -2.0029    1.9930 O   0  0  0  0  0  0  0  0  0  0  0  0
    0.3317   -2.7015    1.0939 C   0  0  2  0  0  0  0  0  0  0  0  0
   -0.2476   -2.5298   -0.3540 C   0  0  2  0  0  0  0  0  0  0  0  0
    0.2573   -4.1732    1.5433 C   0  0  0  0  0  0  0  0  0  0  0  0
    0.9299   -5.1152    0.5465 C   0  0  0  0  0  0  0  0  0  0  0  0
    0.3241   -4.9473   -0.8515 C   0  0  0  0  0  0  0  0  0  0  0  0
    0.4438   -3.4960   -1.3348 C   0  0  0  0  0  0  0  0  0  0  0  0
    1.3714   -2.3042    1.1470 H   0  0  0  0  0  0  0  0  0  0  0  0
   -1.3507   -2.7401   -0.3097 H   0  0  0  0  0  0  0  0  0  0  0  0
   -0.8068   -4.4465    1.6952 H   0  0  0  0  0  0  0  0  0  0  0  0
    0.7197   -4.2594    2.5457 H   0  0  0  0  0  0  0  0  0  0  0  0
    0.8179   -6.1630    0.8853 H   0  0  0  0  0  0  0  0  0  0  0  0
    2.0199   -4.9226    0.5153 H   0  0  0  0  0  0  0  0  0  0  0  0
    0.8299   -5.6210   -1.5689 H   0  0  0  0  0  0  0  0  0  0  0  0
   -0.7396   -5.2567   -0.8398 H   0  0  0  0  0  0  0  0  0  0  0  0
    1.5141   -3.2284   -1.4399 H   0  0  0  0  0  0  0  0  0  0  0  0
   -0.0026   -3.4150   -2.3433 H   0  0  0  0  0  0  0  0  0  0  0  0
    0.4573    1.9824    2.0202 O   0  0  0  0  0  0  0  0  0  0  0  0
   -0.3480    2.6902    1.1163 C   0  0  2  0  0  0  0  0  0  0  0  0
    0.2526    2.5331   -0.3245 C   0  0  2  0  0  0  0  0  0  0  0  0
   -0.2803    4.1572    1.5817 C   0  0  0  0  0  0  0  0  0  0  0  0
   -0.9379    5.1095    0.5847 C   0  0  0  0  0  0  0  0  0  0  0  0
   -0.3112    4.9557   -0.8058 C   0  0  0  0  0  0  0  0  0  0  0  0
   -0.4241    3.5095   -1.3056 C   0  0  0  0  0  0  0  0  0  0  0  0
   -1.3884    2.2925    1.1500 H   0  0  0  0  0  0  0  0  0  0  0  0
    1.3550    2.7426   -0.2618 H   0  0  0  0  0  0  0  0  0  0  0  0
    0.7815    4.4287    1.7523 H   0  0  0  0  0  0  0  0  0  0  0  0
   -0.7576    4.2333    2.5780 H   0  0  0  0  0  0  0  0  0  0  0  0
   -0.8308    6.1538    0.9358 H   0  0  0  0  0  0  0  0  0  0  0  0
   -2.0273    4.9175    0.5353 H   0  0  0  0  0  0  0  0  0  0  0  0
   -0.8061    5.6369   -1.5236 H   0  0  0  0  0  0  0  0  0  0  0  0
    0.7523    5.2645   -0.7750 H   0  0  0  0  0  0  0  0  0  0  0  0
   -1.4928    3.2433   -1.4292 H   0  0  0  0  0  0  0  0  0  0  0  0
    0.0372    3.4386   -2.3082 H   0  0  0  0  0  0  0  0  0  0  0  0
  2  3  3  0  0  0  0
  1  2  1  0  0  0  0
  4  5  1  0  0  0  0
  6  5  1  0  0  0  0
  7  6  1  0  0  0  0
  7  8  1  0  0  0  0
  8  4  1  0  0  0  0
  9  7  1  0  0  0  0
 10  8  1  0  0  0  0
  1  5  1  0  0  0  0
  8 11  1  0  0  0  0
  7 12  1  0  0  0  0
  1 13  1  0  0  0  0
 14 15  1  0  0  0  0
 16 17  1  0  0  0  0
 17 18  1  0  0  0  0
 18 19  1  0  0  0  0
 14 16  1  0  0  0  0
 15 19  1  0  0  0  0
 14 20  1  0  0  0  0
 15 21  1  0  0  0  0
 16 22  1  0  0  0  0
 16 23  1  0  0  0  0
 17 24  1  0  0  0  0
 17 25  1  0  0  0  0
 18 26  1  0  0  0  0
 18 27  1  0  0  0  0
 19 28  1  0  0  0  0
 19 29  1  0  0  0  0
 13 14  1  0  0  0  0
  1 30  1  0  0  0  0
 31 32  1  0  0  0  0
 33 34  1  0  0  0  0
 34 35  1  0  0  0  0
 35 36  1  0  0  0  0
 31 33  1  0  0  0  0
 32 36  1  0  0  0  0
 31 37  1  0  0  0  0
 32 38  1  0  0  0  0
 33 39  1  0  0  0  0
 33 40  1  0  0  0  0
 34 41  1  0  0  0  0
 34 42  1  0  0  0  0
 35 43  1  0  0  0  0
 35 44  1  0  0  0  0
 36 45  1  0  0  0  0
 36 46  1  0  0  0  0
 30 31  1  0  0  0  0
  6 32  1  0  0  0  0
  4 15  1  0  0  0  0
M  END
> <PM6_ENERGY>
-361.762

> <UID>
UIABAQGARJENPA-IKTSKOEKNA-N

> <FITNESS>
1.14584

> <GCODE>
2825

> <GraphENC>
2825 96042_1_0,96043_60_1,96044_79_1,96045_79_1,96046_73_1,96047_73_1,96048_1_2,96049_1_2,96050_71_1,96051_71_1,96052_80_1,96053_80_1, 96042_2_96043_1_SINGLE_scaff:0_MImidazolidinylidene:1,96043_2_96044_0_SINGLE_LImidazolidinylideneSubNL:0_ATplus:0,96043_0_96045_0_SINGLE_LImidazolidinylideneSubNL:0_ATplus:0,96042_0_96046_0_SINGLE_Xlig:0_Xlig:1,96042_1_96047_0_SINGLE_Xlig:0_Xlig:1,96043_4_96048_0_SINGLE_LImidazolidinylideneSubCL:0_hyd:1,96043_3_96049_0_SINGLE_LImidazolidinylideneSubCL:0_hyd:1,96046_1_96050_0_SINGLE_bridge:1_bridge:0,96047_1_96051_0_SINGLE_bridge:1_bridge:0,96050_1_96052_0_SINGLE_bridge:0_ATminus:0,96051_1_96053_0_SINGLE_bridge:0_ATminus:0, DENOPTIMRing [vertices=[96044_79_1, 96043_60_1, 96042_1_0, 96047_73_1, 96051_71_1, 96053_80_1]] DENOPTIMRing [vertices=[96045_79_1, 96043_60_1, 96042_1_0, 96046_73_1, 96050_71_1, 96052_80_1]] SymmetricSet [symIds=[96044, 96045]] SymmetricSet [symIds=[96046, 96047]] SymmetricSet [symIds=[96048, 96049]] SymmetricSet [symIds=[96050, 96051]] SymmetricSet [symIds=[96052, 96053]] 

> <GraphJson>
{
  "graphId": 2825,
  "gVertices": [
    {
      "lstAPs": [
        {
          "id": 157530,
          "atomPositionNumber": 0,
          "atomPositionNumberInMol": -1,
          "apClass": {
            "rule": "Xlig",
            "subClass": 0,
            "bndTyp": "SINGLE"
          },
          "dirVec": {
            "x": -2.3339,
            "y": -0.0087,
            "z": 0.8172
          }
        },
        {
          "id": 157531,
          "atomPositionNumber": 0,
          "atomPositionNumberInMol": -1,
          "apClass": {
            "rule": "Xlig",
            "subClass": 0,
            "bndTyp": "SINGLE"
          },
          "dirVec": {
            "x": 2.336,
            "y": -5.0E-4,
            "z": 0.829
          }
        },
        {
          "id": 157532,
          "atomPositionNumber": 0,
          "atomPositionNumberInMol": -1,
          "apClass": {
            "rule": "scaff",
            "subClass": 0,
            "bndTyp": "SINGLE"
          },
          "dirVec": {
            "x": -0.0095,
            "y": 0.0046,
            "z": -1.7113
          }
        }
      ],
      "lstSymAPs": [
        {
          "symIds": [
            0,
            1
          ]
        }
      ],
      "mol": {
        "atoms": [
          {
            "elSymbol": "Pt",
            "p3d": {
              "x": -0.0098,
              "y": 0.0049,
              "z": 0.6289
            }
          },
          {
            "elSymbol": "C",
            "p3d": {
              "x": -6.0E-4,
              "y": 0.0016,
              "z": 2.5609
            }
          },
          {
            "elSymbol": "O",
            "p3d": {
              "x": 0.0025,
              "y": -0.0041,
              "z": 3.6974
            }
          },
          {
            "elSymbol": "Du",
            "p3d": {
              "x": -0.007,
              "y": 1.0013,
              "z": 0.6372
            }
          },
          {
            "elSymbol": "Du",
            "p3d": {
              "x": -0.0014,
              "y": 0.9902,
              "z": 2.5698
            }
          }
        ],
        "bonds": [
          {
            "atomIds": [
              1,
              2
            ],
            "bo": "TRIPLE"
          },
          {
            "atomIds": [
              0,
              1
            ],
            "bo": "SINGLE"
          },
          {
            "atomIds": [
              3,
              0
            ],
            "bo": "SINGLE"
          },
          {
            "atomIds": [
              4,
              1
            ],
            "bo": "SINGLE"
          }
        ]
      },
      "vertexId": 96042,
      "buildingBlockId": 0,
      "buildingBlockType": "SCAFFOLD",
      "isRCV": false,
      "properties": {
        "ATTACHMENT_POINTS": "1#Xlig:0:SINGLE:-2.3339%-0.0087%0.8172,Xlig:0:SINGLE:2.3360%-0.0005%0.8290,scaff:0:SINGLE:-0.0095%0.0046%-1.7113 ",
        "OLDVERTEXID": 205
      },
      "uniquefyingPropertyKeys": [],
      "allowedMutationTypes": [
        "DELETE",
        "EXTEND",
        "CHANGEBRANCH",
        "CHANGELINK",
        "ADDLINK",
        "DELETELINK",
        "DELETECHAIN"
      ],
      "vertexType": "MolecularFragment"
    },
    {
      "lstAPs": [
        {
          "id": 157533,
          "atomPositionNumber": 0,
          "atomPositionNumberInMol": -1,
          "apClass": {
            "rule": "LImidazolidinylideneSubNL",
            "subClass": 0,
            "bndTyp": "SINGLE"
          },
          "dirVec": {
            "x": 0.9114374237224112,
            "y": -2.269162114034064,
            "z": -1.73512216162091
          }
        },
        {
          "id": 157534,
          "atomPositionNumber": 1,
          "atomPositionNumberInMol": -1,
          "apClass": {
            "rule": "MImidazolidinylidene",
            "subClass": 1,
            "bndTyp": "SINGLE"
          },
          "dirVec": {
            "x": -0.009781397536660474,
            "y": 0.004881397536660548,
            "z": 0.4837883843094877
          }
        },
        {
          "id": 157535,
          "atomPositionNumber": 2,
          "atomPositionNumberInMol": -1,
          "apClass": {
            "rule": "LImidazolidinylideneSubNL",
            "subClass": 0,
            "bndTyp": "SINGLE"
          },
          "dirVec": {
            "x": -0.9076453420528022,
            "y": 2.2675608164958976,
            "z": -1.810031993173502
          }
        },
        {
          "id": 157536,
          "atomPositionNumber": 3,
          "atomPositionNumberInMol": -1,
          "apClass": {
            "rule": "LImidazolidinylideneSubCL",
            "subClass": 0,
            "bndTyp": "SINGLE"
          },
          "dirVec": {
            "x": -1.9597652498362117,
            "y": 0.3654872507731368,
            "z": -4.371946970338932
          }
        },
        {
          "id": 157537,
          "atomPositionNumber": 4,
          "atomPositionNumberInMol": -1,
          "apClass": {
            "rule": "LImidazolidinylideneSubCL",
            "subClass": 0,
            "bndTyp": "SINGLE"
          },
          "dirVec": {
            "x": 1.7398715117890693,
            "y": -0.589379512252807,
            "z": -4.485128403883309
          }
        }
      ],
      "lstSymAPs": [
        {
          "symIds": [
            0,
            2
          ]
        },
        {
          "symIds": [
            3,
            4
          ]
        }
      ],
      "mol": {
        "atoms": [
          {
            "elSymbol": "N",
            "p3d": {
              "x": 0.4620029374357079,
              "y": -1.0012870581278954,
              "z": -2.317095069192333
            }
          },
          {
            "elSymbol": "C",
            "p3d": {
              "x": -0.009518602463339527,
              "y": 0.004618602463339452,
              "z": -1.5661883843094881
            }
          },
          {
            "elSymbol": "N",
            "p3d": {
              "x": -0.495416972415669,
              "y": 0.9580453104531106,
              "z": -2.3396500165637697
            }
          },
          {
            "elSymbol": "C",
            "p3d": {
              "x": -0.5068910066519264,
              "y": 0.5648308504550289,
              "z": -3.756401291483529
            }
          },
          {
            "elSymbol": "C",
            "p3d": {
              "x": 0.3605416829394851,
              "y": -0.6971172079421345,
              "z": -3.770728780301849
            }
          },
          {
            "elSymbol": "H",
            "p3d": {
              "x": -0.1309303334286437,
              "y": 1.330189770633253,
              "z": -4.435352464612437
            }
          },
          {
            "elSymbol": "H",
            "p3d": {
              "x": -0.08828628907134929,
              "y": -1.5032723399177854,
              "z": -4.3711397435011925
            }
          }
        ],
        "bonds": [
          {
            "atomIds": [
              0,
              1
            ],
            "bo": "SINGLE"
          },
          {
            "atomIds": [
              2,
              1
            ],
            "bo": "SINGLE"
          },
          {
            "atomIds": [
              3,
              2
            ],
            "bo": "SINGLE"
          },
          {
            "atomIds": [
              3,
              4
            ],
            "bo": "SINGLE"
          },
          {
            "atomIds": [
              4,
              0
            ],
            "bo": "SINGLE"
          },
          {
            "atomIds": [
              5,
              3
            ],
            "bo": "SINGLE"
          },
          {
            "atomIds": [
              6,
              4
            ],
            "bo": "SINGLE"
          }
        ]
      },
      "vertexId": 96043,
      "buildingBlockId": 59,
      "buildingBlockType": "FRAGMENT",
      "isRCV": false,
      "properties": {
        "ATTACHMENT_POINTS": "1#LImidazolidinylideneSubNL:0:SINGLE:0.9114%-2.2692%-1.7351 2#MImidazolidinylidene:1:SINGLE:-0.0098%0.0049%0.4838 3#LImidazolidinylideneSubNL:0:SINGLE:-0.9076%2.2676%-1.8100 4#LImidazolidinylideneSubCL:0:SINGLE:-1.9598%0.3655%-4.3719 5#LImidazolidinylideneSubCL:0:SINGLE:1.7399%-0.5894%-4.4851 ",
        "OLDVERTEXID": 206
      },
      "uniquefyingPropertyKeys": [],
      "allowedMutationTypes": [
        "DELETE",
        "EXTEND",
        "CHANGEBRANCH",
        "CHANGELINK",
        "ADDLINK",
        "DELETELINK",
        "DELETECHAIN"
      ],
      "vertexType": "MolecularFragment"
    },
    {
      "lstAPs": [
        {
          "id": 157538,
          "atomPositionNumber": 0,
          "atomPositionNumberInMol": -1,
          "apClass": {
            "rule": "ATplus",
            "subClass": 0,
            "bndTyp": "ANY"
          },
          "dirVec": {
            "x": -0.9076453420528022,
            "y": 2.2675608164958976,
            "z": -1.810031993173502
          }
        }
      ],
      "lstSymAPs": [],
      "mol": {
        "atoms": [
          {
            "elSymbol": "ATP",
            "p3d": {
              "x": -0.9135261874114748,
              "y": 2.2862423502113005,
              "z": -1.8024764683136634
            }
          }
        ],
        "bonds": []
      },
      "vertexId": 96044,
      "buildingBlockId": 78,
      "buildingBlockType": "FRAGMENT",
      "isRCV": true,
      "properties": {
        "ATTACHMENT_POINTS": "1#ATplus:0:ANY:-0.9076%2.2676%-1.8100 ",
        "OLDVERTEXID": 207
      },
      "uniquefyingPropertyKeys": [],
      "allowedMutationTypes": [
        "DELETE",
        "EXTEND",
        "CHANGEBRANCH",
        "CHANGELINK",
        "ADDLINK",
        "DELETELINK",
        "DELETECHAIN"
      ],
      "vertexType": "MolecularFragment"
    },
    {
      "lstAPs": [
        {
          "id": 157539,
          "atomPositionNumber": 0,
          "atomPositionNumberInMol": -1,
          "apClass": {
            "rule": "ATplus",
            "subClass": 0,
            "bndTyp": "ANY"
          },
          "dirVec": {
            "x": 0.9114374237224112,
            "y": -2.269162114034064,
            "z": -1.73512216162091
          }
        }
      ],
      "lstSymAPs": [],
      "mol": {
        "atoms": [
          {
            "elSymbol": "ATP",
            "p3d": {
              "x": 0.9178744709033246,
              "y": -2.28732131588304,
              "z": -1.7267868264867459
            }
          }
        ],
        "bonds": []
      },
      "vertexId": 96045,
      "buildingBlockId": 78,
      "buildingBlockType": "FRAGMENT",
      "isRCV": true,
      "properties": {
        "ATTACHMENT_POINTS": "1#ATplus:0:ANY:0.9114%-2.2692%-1.7351 ",
        "OLDVERTEXID": 208
      },
      "uniquefyingPropertyKeys": [],
      "allowedMutationTypes": [
        "DELETE",
        "EXTEND",
        "CHANGEBRANCH",
        "CHANGELINK",
        "ADDLINK",
        "DELETELINK",
        "DELETECHAIN"
      ],
      "vertexType": "MolecularFragment"
    },
    {
      "lstAPs": [
        {
          "id": 157540,
          "atomPositionNumber": 0,
          "atomPositionNumberInMol": -1,
          "apClass": {
            "rule": "Xlig",
            "subClass": 1,
            "bndTyp": "SINGLE"
          },
          "dirVec": {
            "x": -0.1753,
            "y": 0.0948,
            "z": -0.4464
          }
        },
        {
          "id": 157541,
          "atomPositionNumber": 0,
          "atomPositionNumberInMol": -1,
          "apClass": {
            "rule": "bridge",
            "subClass": 1,
            "bndTyp": "SINGLE"
          },
          "dirVec": {
            "x": -0.5345,
            "y": 2.7646,
            "z": 0.48009999999999997
          }
        }
      ],
      "lstSymAPs": [],
      "mol": {
        "atoms": [
          {
            "elSymbol": "O",
            "p3d": {
              "x": -0.3534,
              "y": 2.1044,
              "z": -0.7339
            }
          }
        ],
        "bonds": []
      },
      "vertexId": 96046,
      "buildingBlockId": 72,
      "buildingBlockType": "FRAGMENT",
      "isRCV": false,
      "properties": {
        "ATTACHMENT_POINTS": "1#Xlig:1:SINGLE:-0.1753%0.0948%-0.4464,bridge:1:SINGLE:-0.5345%2.7646%0.4801 ",
        "OLDVERTEXID": 1021
      },
      "uniquefyingPropertyKeys": [],
      "allowedMutationTypes": [
        "DELETE",
        "EXTEND",
        "CHANGEBRANCH",
        "CHANGELINK",
        "ADDLINK",
        "DELETELINK",
        "DELETECHAIN"
      ],
      "vertexType": "MolecularFragment"
    },
    {
      "lstAPs": [
        {
          "id": 157542,
          "atomPositionNumber": 0,
          "atomPositionNumberInMol": -1,
          "apClass": {
            "rule": "Xlig",
            "subClass": 1,
            "bndTyp": "SINGLE"
          },
          "dirVec": {
            "x": -0.1753,
            "y": 0.0948,
            "z": -0.4464
          }
        },
        {
          "id": 157543,
          "atomPositionNumber": 0,
          "atomPositionNumberInMol": -1,
          "apClass": {
            "rule": "bridge",
            "subClass": 1,
            "bndTyp": "SINGLE"
          },
          "dirVec": {
            "x": -0.5345,
            "y": 2.7646,
            "z": 0.48009999999999997
          }
        }
      ],
      "lstSymAPs": [],
      "mol": {
        "atoms": [
          {
            "elSymbol": "O",
            "p3d": {
              "x": -0.3534,
              "y": 2.1044,
              "z": -0.7339
            }
          }
        ],
        "bonds": []
      },
      "vertexId": 96047,
      "buildingBlockId": 72,
      "buildingBlockType": "FRAGMENT",
      "isRCV": false,
      "properties": {
        "ATTACHMENT_POINTS": "1#Xlig:1:SINGLE:-0.1753%0.0948%-0.4464,bridge:1:SINGLE:-0.5345%2.7646%0.4801 ",
        "OLDVERTEXID": 1035
      },
      "uniquefyingPropertyKeys": [],
      "allowedMutationTypes": [
        "DELETE",
        "EXTEND",
        "CHANGEBRANCH",
        "CHANGELINK",
        "ADDLINK",
        "DELETELINK",
        "DELETECHAIN"
      ],
      "vertexType": "MolecularFragment"
    },
    {
      "lstAPs": [
        {
          "id": 157544,
          "atomPositionNumber": 0,
          "atomPositionNumberInMol": -1,
          "apClass": {
            "rule": "hyd",
            "subClass": 1,
            "bndTyp": "SINGLE"
          },
          "dirVec": {
            "x": 0.4589,
            "y": -1.751,
            "z": 0.3869
          }
        }
      ],
      "lstSymAPs": [],
      "mol": {
        "atoms": [
          {
            "elSymbol": "H",
            "p3d": {
              "x": 0.1925,
              "y": -2.5024,
              "z": 1.1483
            }
          }
        ],
        "bonds": []
      },
      "vertexId": 96048,
      "buildingBlockId": 0,
      "buildingBlockType": "CAP",
      "isRCV": false,
      "properties": {
        "ATTACHMENT_POINTS": "1#hyd:1:SINGLE:0.4589%-1.7510%0.3869 ",
        "OLDVERTEXID": 1036
      },
      "uniquefyingPropertyKeys": [],
      "allowedMutationTypes": [
        "DELETE",
        "EXTEND",
        "CHANGEBRANCH",
        "CHANGELINK",
        "ADDLINK",
        "DELETELINK",
        "DELETECHAIN"
      ],
      "vertexType": "MolecularFragment"
    },
    {
      "lstAPs": [
        {
          "id": 157545,
          "atomPositionNumber": 0,
          "atomPositionNumberInMol": -1,
          "apClass": {
            "rule": "hyd",
            "subClass": 1,
            "bndTyp": "SINGLE"
          },
          "dirVec": {
            "x": 0.4589,
            "y": -1.751,
            "z": 0.3869
          }
        }
      ],
      "lstSymAPs": [],
      "mol": {
        "atoms": [
          {
            "elSymbol": "H",
            "p3d": {
              "x": 0.1925,
              "y": -2.5024,
              "z": 1.1483
            }
          }
        ],
        "bonds": []
      },
      "vertexId": 96049,
      "buildingBlockId": 0,
      "buildingBlockType": "CAP",
      "isRCV": false,
      "properties": {
        "ATTACHMENT_POINTS": "1#hyd:1:SINGLE:0.4589%-1.7510%0.3869 ",
        "OLDVERTEXID": 1030
      },
      "uniquefyingPropertyKeys": [],
      "allowedMutationTypes": [
        "DELETE",
        "EXTEND",
        "CHANGEBRANCH",
        "CHANGELINK",
        "ADDLINK",
        "DELETELINK",
        "DELETECHAIN"
      ],
      "vertexType": "MolecularFragment"
    },
    {
      "lstAPs": [
        {
          "id": 157546,
          "atomPositionNumber": 0,
          "atomPositionNumberInMol": -1,
          "apClass": {
            "rule": "bridge",
            "subClass": 0,
            "bndTyp": "SINGLE"
          },
          "dirVec": {
            "x": 0.6064,
            "y": 0.7242,
            "z": -1.2721
          }
        },
        {
          "id": 157547,
          "atomPositionNumber": 1,
          "atomPositionNumberInMol": -1,
          "apClass": {
            "rule": "bridge",
            "subClass": 0,
            "bndTyp": "SINGLE"
          },
          "dirVec": {
            "x": -0.30759999999999993,
            "y": -1.2087,
            "z": 0.009700000000000042
          }
        }
      ],
      "lstSymAPs": [
        {
          "symIds": [
            0,
            1
          ]
        }
      ],
      "mol": {
        "atoms": [
          {
            "elSymbol": "C",
            "p3d": {
              "x": 1.4767,
              "y": 0.4111,
              "z": -0.0358
            }
          },
          {
            "elSymbol": "C",
            "p3d": {
              "x": 0.4613,
              "y": -0.2385,
              "z": 0.9321
            }
          },
          {
            "elSymbol": "C",
            "p3d": {
              "x": 2.2309,
              "y": 1.5817,
              "z": 0.6566
            }
          },
          {
            "elSymbol": "C",
            "p3d": {
              "x": 2.9447,
              "y": 1.0663,
              "z": 1.9414
            }
          },
          {
            "elSymbol": "C",
            "p3d": {
              "x": 1.9846,
              "y": 0.3014,
              "z": 2.9005
            }
          },
          {
            "elSymbol": "C",
            "p3d": {
              "x": 1.1795,
              "y": -0.8206,
              "z": 2.1815
            }
          },
          {
            "elSymbol": "H",
            "p3d": {
              "x": 2.2245,
              "y": -0.3328,
              "z": -0.3416
            }
          },
          {
            "elSymbol": "H",
            "p3d": {
              "x": -0.2539,
              "y": 0.5182,
              "z": 1.28
            }
          },
          {
            "elSymbol": "H",
            "p3d": {
              "x": 1.5281,
              "y": 2.3785,
              "z": 0.9216
            }
          },
          {
            "elSymbol": "H",
            "p3d": {
              "x": 2.9736,
              "y": 1.9987,
              "z": -0.0312
            }
          },
          {
            "elSymbol": "H",
            "p3d": {
              "x": 3.3845,
              "y": 1.9153,
              "z": 2.4737
            }
          },
          {
            "elSymbol": "H",
            "p3d": {
              "x": 3.763,
              "y": 0.3987,
              "z": 1.6524
            }
          },
          {
            "elSymbol": "H",
            "p3d": {
              "x": 2.5686,
              "y": -0.1375,
              "z": 3.7143
            }
          },
          {
            "elSymbol": "H",
            "p3d": {
              "x": 1.2863,
              "y": 1.0176,
              "z": 3.3441
            }
          },
          {
            "elSymbol": "H",
            "p3d": {
              "x": 1.8581,
              "y": -1.6264,
              "z": 1.8862
            }
          },
          {
            "elSymbol": "H",
            "p3d": {
              "x": 0.4395,
              "y": -1.2349,
              "z": 2.8715
            }
          }
        ],
        "bonds": [
          {
            "atomIds": [
              0,
              1
            ],
            "bo": "SINGLE"
          },
          {
            "atomIds": [
              2,
              3
            ],
            "bo": "SINGLE"
          },
          {
            "atomIds": [
              3,
              4
            ],
            "bo": "SINGLE"
          },
          {
            "atomIds": [
              4,
              5
            ],
            "bo": "SINGLE"
          },
          {
            "atomIds": [
              0,
              2
            ],
            "bo": "SINGLE"
          },
          {
            "atomIds": [
              1,
              5
            ],
            "bo": "SINGLE"
          },
          {
            "atomIds": [
              0,
              6
            ],
            "bo": "SINGLE"
          },
          {
            "atomIds": [
              1,
              7
            ],
            "bo": "SINGLE"
          },
          {
            "atomIds": [
              2,
              8
            ],
            "bo": "SINGLE"
          },
          {
            "atomIds": [
              2,
              9
            ],
            "bo": "SINGLE"
          },
          {
            "atomIds": [
              3,
              10
            ],
            "bo": "SINGLE"
          },
          {
            "atomIds": [
              3,
              11
            ],
            "bo": "SINGLE"
          },
          {
            "atomIds": [
              4,
              12
            ],
            "bo": "SINGLE"
          },
          {
            "atomIds": [
              4,
              13
            ],
            "bo": "SINGLE"
          },
          {
            "atomIds": [
              5,
              14
            ],
            "bo": "SINGLE"
          },
          {
            "atomIds": [
              5,
              15
            ],
            "bo": "SINGLE"
          }
        ]
      },
      "vertexId": 96050,
      "buildingBlockId": 70,
      "buildingBlockType": "FRAGMENT",
      "isRCV": false,
      "properties": {
        "ATTACHMENT_POINTS": "1#bridge:0:SINGLE:0.6064%0.7242%-1.2721 2#bridge:0:SINGLE:-0.3076%-1.2087%0.0097 ",
        "OLDVERTEXID": 25532
      },
      "uniquefyingPropertyKeys": [],
      "allowedMutationTypes": [
        "DELETE",
        "EXTEND",
        "CHANGEBRANCH",
        "CHANGELINK",
        "ADDLINK",
        "DELETELINK",
        "DELETECHAIN"
      ],
      "vertexType": "MolecularFragment"
    },
    {
      "lstAPs": [
        {
          "id": 157548,
          "atomPositionNumber": 0,
          "atomPositionNumberInMol": -1,
          "apClass": {
            "rule": "bridge",
            "subClass": 0,
            "bndTyp": "SINGLE"
          },
          "dirVec": {
            "x": 0.6064,
            "y": 0.7242,
            "z": -1.2721
          }
        },
        {
          "id": 157549,
          "atomPositionNumber": 1,
          "atomPositionNumberInMol": -1,
          "apClass": {
            "rule": "bridge",
            "subClass": 0,
            "bndTyp": "SINGLE"
          },
          "dirVec": {
            "x": -0.30759999999999993,
            "y": -1.2087,
            "z": 0.009700000000000042
          }
        }
      ],
      "lstSymAPs": [
        {
          "symIds": [
            0,
            1
          ]
        }
      ],
      "mol": {
        "atoms": [
          {
            "elSymbol": "C",
            "p3d": {
              "x": 1.4767,
              "y": 0.4111,
              "z": -0.0358
            }
          },
          {
            "elSymbol": "C",
            "p3d": {
              "x": 0.4613,
              "y": -0.2385,
              "z": 0.9321
            }
          },
          {
            "elSymbol": "C",
            "p3d": {
              "x": 2.2309,
              "y": 1.5817,
              "z": 0.6566
            }
          },
          {
            "elSymbol": "C",
            "p3d": {
              "x": 2.9447,
              "y": 1.0663,
              "z": 1.9414
            }
          },
          {
            "elSymbol": "C",
            "p3d": {
              "x": 1.9846,
              "y": 0.3014,
              "z": 2.9005
            }
          },
          {
            "elSymbol": "C",
            "p3d": {
              "x": 1.1795,
              "y": -0.8206,
              "z": 2.1815
            }
          },
          {
            "elSymbol": "H",
            "p3d": {
              "x": 2.2245,
              "y": -0.3328,
              "z": -0.3416
            }
          },
          {
            "elSymbol": "H",
            "p3d": {
              "x": -0.2539,
              "y": 0.5182,
              "z": 1.28
            }
          },
          {
            "elSymbol": "H",
            "p3d": {
              "x": 1.5281,
              "y": 2.3785,
              "z": 0.9216
            }
          },
          {
            "elSymbol": "H",
            "p3d": {
              "x": 2.9736,
              "y": 1.9987,
              "z": -0.0312
            }
          },
          {
            "elSymbol": "H",
            "p3d": {
              "x": 3.3845,
              "y": 1.9153,
              "z": 2.4737
            }
          },
          {
            "elSymbol": "H",
            "p3d": {
              "x": 3.763,
              "y": 0.3987,
              "z": 1.6524
            }
          },
          {
            "elSymbol": "H",
            "p3d": {
              "x": 2.5686,
              "y": -0.1375,
              "z": 3.7143
            }
          },
          {
            "elSymbol": "H",
            "p3d": {
              "x": 1.2863,
              "y": 1.0176,
              "z": 3.3441
            }
          },
          {
            "elSymbol": "H",
            "p3d": {
              "x": 1.8581,
              "y": -1.6264,
              "z": 1.8862
            }
          },
          {
            "elSymbol": "H",
            "p3d": {
              "x": 0.4395,
              "y": -1.2349,
              "z": 2.8715
            }
          }
        ],
        "bonds": [
          {
            "atomIds": [
              0,
              1
            ],
            "bo": "SINGLE"
          },
          {
            "atomIds": [
              2,
              3
            ],
            "bo": "SINGLE"
          },
          {
            "atomIds": [
              3,
              4
            ],
            "bo": "SINGLE"
          },
          {
            "atomIds": [
              4,
              5
            ],
            "bo": "SINGLE"
          },
          {
            "atomIds": [
              0,
              2
            ],
            "bo": "SINGLE"
          },
          {
            "atomIds": [
              1,
              5
            ],
            "bo": "SINGLE"
          },
          {
            "atomIds": [
              0,
              6
            ],
            "bo": "SINGLE"
          },
          {
            "atomIds": [
              1,
              7
            ],
            "bo": "SINGLE"
          },
          {
            "atomIds": [
              2,
              8
            ],
            "bo": "SINGLE"
          },
          {
            "atomIds": [
              2,
              9
            ],
            "bo": "SINGLE"
          },
          {
            "atomIds": [
              3,
              10
            ],
            "bo": "SINGLE"
          },
          {
            "atomIds": [
              3,
              11
            ],
            "bo": "SINGLE"
          },
          {
            "atomIds": [
              4,
              12
            ],
            "bo": "SINGLE"
          },
          {
            "atomIds": [
              4,
              13
            ],
            "bo": "SINGLE"
          },
          {
            "atomIds": [
              5,
              14
            ],
            "bo": "SINGLE"
          },
          {
            "atomIds": [
              5,
              15
            ],
            "bo": "SINGLE"
          }
        ]
      },
      "vertexId": 96051,
      "buildingBlockId": 70,
      "buildingBlockType": "FRAGMENT",
      "isRCV": false,
      "properties": {
        "ATTACHMENT_POINTS": "1#bridge:0:SINGLE:0.6064%0.7242%-1.2721 2#bridge:0:SINGLE:-0.3076%-1.2087%0.0097 ",
        "OLDVERTEXID": 25798
      },
      "uniquefyingPropertyKeys": [],
      "allowedMutationTypes": [
        "DELETE",
        "EXTEND",
        "CHANGEBRANCH",
        "CHANGELINK",
        "ADDLINK",
        "DELETELINK",
        "DELETECHAIN"
      ],
      "vertexType": "MolecularFragment"
    },
    {
      "lstAPs": [
        {
          "id": 157550,
          "atomPositionNumber": 0,
          "atomPositionNumberInMol": -1,
          "apClass": {
            "rule": "ATminus",
            "subClass": 0,
            "bndTyp": "ANY"
          },
          "dirVec": {
            "x": 0.0109,
            "y": -0.0071,
            "z": 0.0026
          }
        }
      ],
      "lstSymAPs": [],
      "mol": {
        "atoms": [
          {
            "elSymbol": "ATM",
            "p3d": {
              "x": -0.0096,
              "y": 0.0045,
              "z": -0.0011
            }
          }
        ],
        "bonds": []
      },
      "vertexId": 96052,
      "buildingBlockId": 79,
      "buildingBlockType": "FRAGMENT",
      "isRCV": true,
      "properties": {
        "ATTACHMENT_POINTS": "1#ATminus:0:ANY:0.0109%-0.0071%0.0026 ",
        "OLDVERTEXID": 95793
      },
      "uniquefyingPropertyKeys": [],
      "allowedMutationTypes": [
        "DELETE",
        "EXTEND",
        "CHANGEBRANCH",
        "CHANGELINK",
        "ADDLINK",
        "DELETELINK",
        "DELETECHAIN"
      ],
      "vertexType": "MolecularFragment"
    },
    {
      "lstAPs": [
        {
          "id": 157551,
          "atomPositionNumber": 0,
          "atomPositionNumberInMol": -1,
          "apClass": {
            "rule": "ATminus",
            "subClass": 0,
            "bndTyp": "ANY"
          },
          "dirVec": {
            "x": 0.0109,
            "y": -0.0071,
            "z": 0.0026
          }
        }
      ],
      "lstSymAPs": [],
      "mol": {
        "atoms": [
          {
            "elSymbol": "ATM",
            "p3d": {
              "x": -0.0096,
              "y": 0.0045,
              "z": -0.0011
            }
          }
        ],
        "bonds": []
      },
      "vertexId": 96053,
      "buildingBlockId": 79,
      "buildingBlockType": "FRAGMENT",
      "isRCV": true,
      "properties": {
        "ATTACHMENT_POINTS": "1#ATminus:0:ANY:0.0109%-0.0071%0.0026 ",
        "OLDVERTEXID": 95795
      },
      "uniquefyingPropertyKeys": [],
      "allowedMutationTypes": [
        "DELETE",
        "EXTEND",
        "CHANGEBRANCH",
        "CHANGELINK",
        "ADDLINK",
        "DELETELINK",
        "DELETECHAIN"
      ],
      "vertexType": "MolecularFragment"
    }
  ],
  "gEdges": [
    {
      "srcAPID": 157532,
      "trgAPID": 157534,
      "bondType": "SINGLE"
    },
    {
      "srcAPID": 157535,
      "trgAPID": 157538,
      "bondType": "SINGLE"
    },
    {
      "srcAPID": 157533,
      "trgAPID": 157539,
      "bondType": "SINGLE"
    },
    {
      "srcAPID": 157530,
      "trgAPID": 157540,
      "bondType": "SINGLE"
    },
    {
      "srcAPID": 157531,
      "trgAPID": 157542,
      "bondType": "SINGLE"
    },
    {
      "srcAPID": 157537,
      "trgAPID": 157544,
      "bondType": "SINGLE"
    },
    {
      "srcAPID": 157536,
      "trgAPID": 157545,
      "bondType": "SINGLE"
    },
    {
      "srcAPID": 157541,
      "trgAPID": 157546,
      "bondType": "SINGLE"
    },
    {
      "srcAPID": 157543,
      "trgAPID": 157548,
      "bondType": "SINGLE"
    },
    {
      "srcAPID": 157547,
      "trgAPID": 157550,
      "bondType": "SINGLE"
    },
    {
      "srcAPID": 157549,
      "trgAPID": 157551,
      "bondType": "SINGLE"
    }
  ],
  "gRings": [
    {
      "vertices": [
        96044,
        96043,
        96042,
        96047,
        96051,
        96053
      ],
      "bndTyp": "SINGLE"
    },
    {
      "vertices": [
        96045,
        96043,
        96042,
        96046,
        96050,
        96052
      ],
      "bndTyp": "SINGLE"
    }
  ],
  "symVertices": [
    {
      "symIds": [
        96044,
        96045
      ]
    },
    {
      "symIds": [
        96046,
        96047
      ]
    },
    {
      "symIds": [
        96048,
        96049
      ]
    },
    {
      "symIds": [
        96050,
        96051
      ]
    },
    {
      "symIds": [
        96052,
        96053
      ]
    }
  ]
}

> <SMILES>
[Pt]12(C#O)[C]3N(C(C(N3C4(C(C(C(C(C4([H])[H])([H])[H])([H])[H])([H])[H])([H])O1)[H])([H])[H])([H])[H])C5(C(C(C(C(C5([H])[H])([H])[H])([H])[H])([H])[H])([H])O2)[H]

$$$$
