M20003945
  CDK     05042206493D

 44 48  0  0  0  0  0  0  0  0999 V2000
   -1.9985   -0.4971   -0.8009 Pt  0  0  0  0  0  0  0  0  0  0  0  0
   -3.9572   -0.6165   -0.6334 C   0  0  0  0  0  0  0  0  0  0  0  0
   -5.0903   -0.6989   -0.5238 O   0  0  0  0  0  0  0  0  0  0  0  0
    2.4032   -1.0900    0.2857 C   0  0  0  0  0  0  0  0  0  0  0  0
    3.0959   -1.4518   -0.5134 H   0  0  0  0  0  0  0  0  0  0  0  0
    2.8126   -1.4971    1.2360 H   0  0  0  0  0  0  0  0  0  0  0  0
    2.3651    0.4606    0.3225 C   0  0  0  0  0  0  0  0  0  0  0  0
    2.3028    0.8405    1.3682 H   0  0  0  0  0  0  0  0  0  0  0  0
    3.2950    0.8837   -0.1185 H   0  0  0  0  0  0  0  0  0  0  0  0
    1.0588   -1.6744   -0.0261 N   0  0  2  0  0  0  0  0  0  0  0  0
    1.1666    0.9145   -0.4382 N   0  0  2  0  0  0  0  0  0  0  0  0
    0.2278   -0.4404   -1.0054 P   0  0  0  0  0  0  0  0  0  0  0  0
    0.6948   -0.7578   -2.7817 C   0  0  0  0  0  0  0  0  0  0  0  0
    0.0996   -1.5965   -3.1859 H   0  0  0  0  0  0  0  0  0  0  0  0
    1.7551   -1.0073   -2.9013 H   0  0  0  0  0  0  0  0  0  0  0  0
    0.4779    0.1235   -3.4058 H   0  0  0  0  0  0  0  0  0  0  0  0
   -2.1512   -2.4987   -1.2131 O   0  0  0  0  0  0  0  0  0  0  0  0
   -1.2359   -3.3772   -0.6162 C   0  0  0  0  0  0  0  0  0  0  0  0
   -0.8743   -2.9571    0.7941 C   0  0  0  0  0  0  0  0  0  0  0  0
   -1.6522   -3.4340    1.8562 C   0  0  0  0  0  0  0  0  0  0  0  0
   -1.3465   -3.1109    3.1818 C   0  0  0  0  0  0  0  0  0  0  0  0
   -0.2512   -2.2913    3.4585 C   0  0  0  0  0  0  0  0  0  0  0  0
    0.5315   -1.7885    2.4162 C   0  0  0  0  0  0  0  0  0  0  0  0
    0.2306   -2.1183    1.0833 C   0  0  0  0  0  0  0  0  0  0  0  0
   -1.7544   -4.3617   -0.6225 H   0  0  0  0  0  0  0  0  0  0  0  0
   -0.3436   -3.4657   -1.2696 H   0  0  0  0  0  0  0  0  0  0  0  0
   -2.5143   -4.0695    1.6417 H   0  0  0  0  0  0  0  0  0  0  0  0
   -1.9626   -3.4962    3.9921 H   0  0  0  0  0  0  0  0  0  0  0  0
   -0.0068   -2.0345    4.4888 H   0  0  0  0  0  0  0  0  0  0  0  0
    1.3693   -1.1367    2.6528 H   0  0  0  0  0  0  0  0  0  0  0  0
   -2.2818    1.5103   -0.5645 O   0  0  0  0  0  0  0  0  0  0  0  0
   -1.4575    2.1239    0.3903 C   0  0  0  0  0  0  0  0  0  0  0  0
   -0.3389    2.8822   -0.2972 C   0  0  0  0  0  0  0  0  0  0  0  0
   -0.5454    4.2381   -0.5939 C   0  0  0  0  0  0  0  0  0  0  0  0
    0.4569    5.0156   -1.1765 C   0  0  0  0  0  0  0  0  0  0  0  0
    1.6936    4.4397   -1.4828 C   0  0  0  0  0  0  0  0  0  0  0  0
    1.9175    3.0878   -1.2279 C   0  0  0  0  0  0  0  0  0  0  0  0
    0.8977    2.3030   -0.6513 C   0  0  0  0  0  0  0  0  0  0  0  0
   -2.1256    2.8250    0.9385 H   0  0  0  0  0  0  0  0  0  0  0  0
   -1.0792    1.3813    1.1192 H   0  0  0  0  0  0  0  0  0  0  0  0
   -1.5124    4.6904   -0.3629 H   0  0  0  0  0  0  0  0  0  0  0  0
    0.2746    6.0663   -1.3930 H   0  0  0  0  0  0  0  0  0  0  0  0
    2.4811    5.0446   -1.9306 H   0  0  0  0  0  0  0  0  0  0  0  0
    2.8716    2.6372   -1.4896 H   0  0  0  0  0  0  0  0  0  0  0  0
  2  3  3  0  0  0  0
  1  2  1  0  0  0  0
  4  5  1  0  0  0  0
  4 10  1  0  0  0  0
  6  4  1  0  0  0  0
  7  4  1  0  0  0  0
  8  7  1  0  0  0  0
  9  7  1  0  0  0  0
 10 12  1  0  0  0  0
 11  7  1  0  0  0  0
 11 12  1  0  0  0  0
  1 12  1  0  0  0  0
 14 13  1  0  0  0  0
 15 13  1  0  0  0  0
 16 13  1  0  0  0  0
 12 13  1  0  0  0  0
  1 17  1  0  0  0  0
 18 19  1  0  0  0  0
 19 20  1  0  0  0  0
 20 21  2  0  0  0  0
 21 22  1  0  0  0  0
 22 23  2  0  0  0  0
 23 24  1  0  0  0  0
 19 24  2  0  0  0  0
 18 25  1  0  0  0  0
 18 26  1  0  0  0  0
 20 27  1  0  0  0  0
 21 28  1  0  0  0  0
 22 29  1  0  0  0  0
 23 30  1  0  0  0  0
 17 18  1  0  0  0  0
  1 31  1  0  0  0  0
 32 33  1  0  0  0  0
 33 34  1  0  0  0  0
 34 35  2  0  0  0  0
 35 36  1  0  0  0  0
 36 37  2  0  0  0  0
 37 38  1  0  0  0  0
 33 38  2  0  0  0  0
 32 39  1  0  0  0  0
 32 40  1  0  0  0  0
 34 41  1  0  0  0  0
 35 42  1  0  0  0  0
 36 43  1  0  0  0  0
 37 44  1  0  0  0  0
 31 32  1  0  0  0  0
 11 38  1  0  0  0  0
 10 24  1  0  0  0  0
M  END
> <PM6_ENERGY>
-162.567

> <UID>
VMCJRYTVUKXDFA-OVBYSDBENA-N

> <FITNESS>
1.14137

> <GCODE>
9781

> <GraphENC>
9781 495778_1_0,495779_2_1,495780_79_1,495781_79_1,495782_73_1,495783_73_1,495784_2_2,495785_68_1,495786_68_1,495787_80_1,495788_80_1, 495778_2_495779_3_SINGLE_scaff:0_MBisAminoPhosphine:1,495779_1_495780_0_SINGLE_LCycloBisAminoPhosphineSubN:0_ATplus:0,495779_0_495781_0_SINGLE_LCycloBisAminoPhosphineSubN:0_ATplus:0,495778_1_495782_0_SINGLE_Xlig:0_Xlig:1,495778_0_495783_0_SINGLE_Xlig:0_Xlig:1,495779_2_495784_0_SINGLE_LBisAminoPhosphineSubR:0_me:1,495783_1_495785_0_SINGLE_bridge:1_bridge:0,495782_1_495786_0_SINGLE_bridge:1_bridge:0,495786_1_495787_0_SINGLE_bridge:0_ATminus:0,495785_1_495788_0_SINGLE_bridge:0_ATminus:0, DENOPTIMRing [vertices=[495781_79_1, 495779_2_1, 495778_1_0, 495782_73_1, 495786_68_1, 495787_80_1]] DENOPTIMRing [vertices=[495780_79_1, 495779_2_1, 495778_1_0, 495783_73_1, 495785_68_1, 495788_80_1]] SymmetricSet [symIds=[495780, 495781]] SymmetricSet [symIds=[495782, 495783]] SymmetricSet [symIds=[495785, 495786]] SymmetricSet [symIds=[495787, 495788]] 

> <GraphJson>
{
  "graphId": 9781,
  "gVertices": [
    {
      "lstAPs": [
        {
          "id": 827384,
          "atomPositionNumber": 0,
          "atomPositionNumberInMol": -1,
          "apClass": {
            "rule": "Xlig",
            "subClass": 0,
            "bndTyp": "SINGLE"
          },
          "dirVec": {
            "x": -2.3339,
            "y": -0.0087,
            "z": 0.8172
          }
        },
        {
          "id": 827385,
          "atomPositionNumber": 0,
          "atomPositionNumberInMol": -1,
          "apClass": {
            "rule": "Xlig",
            "subClass": 0,
            "bndTyp": "SINGLE"
          },
          "dirVec": {
            "x": 2.336,
            "y": -5.0E-4,
            "z": 0.829
          }
        },
        {
          "id": 827386,
          "atomPositionNumber": 0,
          "atomPositionNumberInMol": -1,
          "apClass": {
            "rule": "scaff",
            "subClass": 0,
            "bndTyp": "SINGLE"
          },
          "dirVec": {
            "x": -0.0095,
            "y": 0.0046,
            "z": -1.7113
          }
        }
      ],
      "lstSymAPs": [
        {
          "symIds": [
            0,
            1
          ]
        }
      ],
      "mol": {
        "atoms": [
          {
            "elSymbol": "Pt",
            "p3d": {
              "x": -0.0098,
              "y": 0.0049,
              "z": 0.6289
            }
          },
          {
            "elSymbol": "C",
            "p3d": {
              "x": -6.0E-4,
              "y": 0.0016,
              "z": 2.5609
            }
          },
          {
            "elSymbol": "O",
            "p3d": {
              "x": 0.0025,
              "y": -0.0041,
              "z": 3.6974
            }
          },
          {
            "elSymbol": "Du",
            "p3d": {
              "x": -0.007,
              "y": 1.0013,
              "z": 0.6372
            }
          },
          {
            "elSymbol": "Du",
            "p3d": {
              "x": -0.0014,
              "y": 0.9902,
              "z": 2.5698
            }
          }
        ],
        "bonds": [
          {
            "atomIds": [
              1,
              2
            ],
            "bo": "TRIPLE"
          },
          {
            "atomIds": [
              0,
              1
            ],
            "bo": "SINGLE"
          },
          {
            "atomIds": [
              3,
              0
            ],
            "bo": "SINGLE"
          },
          {
            "atomIds": [
              4,
              1
            ],
            "bo": "SINGLE"
          }
        ]
      },
      "vertexId": 495778,
      "buildingBlockId": 0,
      "buildingBlockType": "SCAFFOLD",
      "isRCV": false,
      "properties": {
        "ATTACHMENT_POINTS": "1#Xlig:0:SINGLE:-2.3339%-0.0087%0.8172,Xlig:0:SINGLE:2.3360%-0.0005%0.8290,scaff:0:SINGLE:-0.0095%0.0046%-1.7113 ",
        "OLDVERTEXID": 161
      },
      "uniquefyingPropertyKeys": [],
      "allowedMutationTypes": [
        "DELETE",
        "EXTEND",
        "CHANGEBRANCH",
        "CHANGELINK",
        "ADDLINK",
        "DELETELINK",
        "DELETECHAIN"
      ],
      "vertexType": "MolecularFragment"
    },
    {
      "lstAPs": [
        {
          "id": 827387,
          "atomPositionNumber": 6,
          "atomPositionNumberInMol": -1,
          "apClass": {
            "rule": "LCycloBisAminoPhosphineSubN",
            "subClass": 0,
            "bndTyp": "SINGLE"
          },
          "dirVec": {
            "x": 2.4643006755553873,
            "y": 1.2468716069052097,
            "z": -1.9747445793829592
          }
        },
        {
          "id": 827388,
          "atomPositionNumber": 7,
          "atomPositionNumberInMol": -1,
          "apClass": {
            "rule": "LCycloBisAminoPhosphineSubN",
            "subClass": 0,
            "bndTyp": "SINGLE"
          },
          "dirVec": {
            "x": -2.667318572597261,
            "y": 0.7861314432966159,
            "z": -2.257537266040838
          }
        },
        {
          "id": 827389,
          "atomPositionNumber": 8,
          "atomPositionNumberInMol": -1,
          "apClass": {
            "rule": "LBisAminoPhosphineSubR",
            "subClass": 0,
            "bndTyp": "SINGLE"
          },
          "dirVec": {
            "x": -0.039239605339551384,
            "y": -1.7383442342568314,
            "z": -2.2805275965891076
          }
        },
        {
          "id": 827390,
          "atomPositionNumber": 8,
          "atomPositionNumberInMol": -1,
          "apClass": {
            "rule": "MBisAminoPhosphine",
            "subClass": 1,
            "bndTyp": "SINGLE"
          },
          "dirVec": {
            "x": -0.009790409017403273,
            "y": 0.004890409017403152,
            "z": 0.5540839417569379
          }
        }
      ],
      "lstSymAPs": [
        {
          "symIds": [
            0,
            1
          ]
        }
      ],
      "mol": {
        "atoms": [
          {
            "elSymbol": "C",
            "p3d": {
              "x": 0.695923955864642,
              "y": 1.301301510383336,
              "z": -3.786275761246294
            }
          },
          {
            "elSymbol": "H",
            "p3d": {
              "x": 0.7890953912753949,
              "y": 0.5398623367073316,
              "z": -4.559843863235449
            }
          },
          {
            "elSymbol": "H",
            "p3d": {
              "x": 1.2369865388567785,
              "y": 2.19869356939361,
              "z": -4.092313199660583
            }
          },
          {
            "elSymbol": "C",
            "p3d": {
              "x": -0.767092363402958,
              "y": 1.6305799666394032,
              "z": -3.560861924487552
            }
          },
          {
            "elSymbol": "H",
            "p3d": {
              "x": -0.8976241855742316,
              "y": 2.692197960691883,
              "z": -3.2742071179612435
            }
          },
          {
            "elSymbol": "H",
            "p3d": {
              "x": -1.3437529063162965,
              "y": 1.4776908163419515,
              "z": -4.4700755935270235
            }
          },
          {
            "elSymbol": "N",
            "p3d": {
              "x": 1.1855492631593463,
              "y": 0.8099717319400803,
              "z": -2.4687619824676914
            }
          },
          {
            "elSymbol": "N",
            "p3d": {
              "x": -1.2551557284633874,
              "y": 0.759938171703057,
              "z": -2.487367538570274
            }
          },
          {
            "elSymbol": "P",
            "p3d": {
              "x": -0.009509590982596726,
              "y": 0.004609590982596848,
              "z": -1.636483941756938
            }
          }
        ],
        "bonds": [
          {
            "atomIds": [
              0,
              1
            ],
            "bo": "SINGLE"
          },
          {
            "atomIds": [
              0,
              6
            ],
            "bo": "SINGLE"
          },
          {
            "atomIds": [
              2,
              0
            ],
            "bo": "SINGLE"
          },
          {
            "atomIds": [
              3,
              0
            ],
            "bo": "SINGLE"
          },
          {
            "atomIds": [
              4,
              3
            ],
            "bo": "SINGLE"
          },
          {
            "atomIds": [
              5,
              3
            ],
            "bo": "SINGLE"
          },
          {
            "atomIds": [
              6,
              8
            ],
            "bo": "SINGLE"
          },
          {
            "atomIds": [
              7,
              3
            ],
            "bo": "SINGLE"
          },
          {
            "atomIds": [
              7,
              8
            ],
            "bo": "SINGLE"
          }
        ]
      },
      "vertexId": 495779,
      "buildingBlockId": 1,
      "buildingBlockType": "FRAGMENT",
      "isRCV": false,
      "properties": {
        "ATTACHMENT_POINTS": "7#LCycloBisAminoPhosphineSubN:0:SINGLE:2.4643%1.2469%-1.9747 8#LCycloBisAminoPhosphineSubN:0:SINGLE:-2.6673%0.7861%-2.2575 9#LBisAminoPhosphineSubR:0:SINGLE:-0.0392%-1.7383%-2.2805,MBisAminoPhosphine:1:SINGLE:-0.0098%0.0049%0.5541 ",
        "OLDVERTEXID": 162
      },
      "uniquefyingPropertyKeys": [],
      "allowedMutationTypes": [
        "DELETE",
        "EXTEND",
        "CHANGEBRANCH",
        "CHANGELINK",
        "ADDLINK",
        "DELETELINK",
        "DELETECHAIN"
      ],
      "vertexType": "MolecularFragment"
    },
    {
      "lstAPs": [
        {
          "id": 827391,
          "atomPositionNumber": 0,
          "atomPositionNumberInMol": -1,
          "apClass": {
            "rule": "ATplus",
            "subClass": 0,
            "bndTyp": "ANY"
          },
          "dirVec": {
            "x": -2.667318572597261,
            "y": 0.7861314432966159,
            "z": -2.257537266040838
          }
        }
      ],
      "lstSymAPs": [],
      "mol": {
        "atoms": [
          {
            "elSymbol": "ATP",
            "p3d": {
              "x": -2.688034629340082,
              "y": 0.786515691687562,
              "z": -2.2541657165154305
            }
          }
        ],
        "bonds": []
      },
      "vertexId": 495780,
      "buildingBlockId": 78,
      "buildingBlockType": "FRAGMENT",
      "isRCV": true,
      "properties": {
        "ATTACHMENT_POINTS": "1#ATplus:0:ANY:-2.6673%0.7861%-2.2575 ",
        "OLDVERTEXID": 163
      },
      "uniquefyingPropertyKeys": [],
      "allowedMutationTypes": [
        "DELETE",
        "EXTEND",
        "CHANGEBRANCH",
        "CHANGELINK",
        "ADDLINK",
        "DELETELINK",
        "DELETECHAIN"
      ],
      "vertexType": "MolecularFragment"
    },
    {
      "lstAPs": [
        {
          "id": 827392,
          "atomPositionNumber": 0,
          "atomPositionNumberInMol": -1,
          "apClass": {
            "rule": "ATplus",
            "subClass": 0,
            "bndTyp": "ANY"
          },
          "dirVec": {
            "x": 2.4643006755553873,
            "y": 1.2468716069052097,
            "z": -1.9747445793829592
          }
        }
      ],
      "lstSymAPs": [],
      "mol": {
        "atoms": [
          {
            "elSymbol": "ATP",
            "p3d": {
              "x": 2.4829577276549566,
              "y": 1.2532459996530905,
              "z": -1.9675368388181411
            }
          }
        ],
        "bonds": []
      },
      "vertexId": 495781,
      "buildingBlockId": 78,
      "buildingBlockType": "FRAGMENT",
      "isRCV": true,
      "properties": {
        "ATTACHMENT_POINTS": "1#ATplus:0:ANY:2.4643%1.2469%-1.9747 ",
        "OLDVERTEXID": 164
      },
      "uniquefyingPropertyKeys": [],
      "allowedMutationTypes": [
        "DELETE",
        "EXTEND",
        "CHANGEBRANCH",
        "CHANGELINK",
        "ADDLINK",
        "DELETELINK",
        "DELETECHAIN"
      ],
      "vertexType": "MolecularFragment"
    },
    {
      "lstAPs": [
        {
          "id": 827393,
          "atomPositionNumber": 0,
          "atomPositionNumberInMol": -1,
          "apClass": {
            "rule": "Xlig",
            "subClass": 1,
            "bndTyp": "SINGLE"
          },
          "dirVec": {
            "x": -0.1753,
            "y": 0.0948,
            "z": -0.4464
          }
        },
        {
          "id": 827394,
          "atomPositionNumber": 0,
          "atomPositionNumberInMol": -1,
          "apClass": {
            "rule": "bridge",
            "subClass": 1,
            "bndTyp": "SINGLE"
          },
          "dirVec": {
            "x": -0.5345,
            "y": 2.7646,
            "z": 0.48009999999999997
          }
        }
      ],
      "lstSymAPs": [],
      "mol": {
        "atoms": [
          {
            "elSymbol": "O",
            "p3d": {
              "x": -0.3534,
              "y": 2.1044,
              "z": -0.7339
            }
          }
        ],
        "bonds": []
      },
      "vertexId": 495782,
      "buildingBlockId": 72,
      "buildingBlockType": "FRAGMENT",
      "isRCV": false,
      "properties": {
        "ATTACHMENT_POINTS": "1#Xlig:1:SINGLE:-0.1753%0.0948%-0.4464,bridge:1:SINGLE:-0.5345%2.7646%0.4801 ",
        "OLDVERTEXID": 1520
      },
      "uniquefyingPropertyKeys": [],
      "allowedMutationTypes": [
        "DELETE",
        "EXTEND",
        "CHANGEBRANCH",
        "CHANGELINK",
        "ADDLINK",
        "DELETELINK",
        "DELETECHAIN"
      ],
      "vertexType": "MolecularFragment"
    },
    {
      "lstAPs": [
        {
          "id": 827395,
          "atomPositionNumber": 0,
          "atomPositionNumberInMol": -1,
          "apClass": {
            "rule": "Xlig",
            "subClass": 1,
            "bndTyp": "SINGLE"
          },
          "dirVec": {
            "x": -0.1753,
            "y": 0.0948,
            "z": -0.4464
          }
        },
        {
          "id": 827396,
          "atomPositionNumber": 0,
          "atomPositionNumberInMol": -1,
          "apClass": {
            "rule": "bridge",
            "subClass": 1,
            "bndTyp": "SINGLE"
          },
          "dirVec": {
            "x": -0.5345,
            "y": 2.7646,
            "z": 0.48009999999999997
          }
        }
      ],
      "lstSymAPs": [],
      "mol": {
        "atoms": [
          {
            "elSymbol": "O",
            "p3d": {
              "x": -0.3534,
              "y": 2.1044,
              "z": -0.7339
            }
          }
        ],
        "bonds": []
      },
      "vertexId": 495783,
      "buildingBlockId": 72,
      "buildingBlockType": "FRAGMENT",
      "isRCV": false,
      "properties": {
        "ATTACHMENT_POINTS": "1#Xlig:1:SINGLE:-0.1753%0.0948%-0.4464,bridge:1:SINGLE:-0.5345%2.7646%0.4801 ",
        "OLDVERTEXID": 1505
      },
      "uniquefyingPropertyKeys": [],
      "allowedMutationTypes": [
        "DELETE",
        "EXTEND",
        "CHANGEBRANCH",
        "CHANGELINK",
        "ADDLINK",
        "DELETELINK",
        "DELETECHAIN"
      ],
      "vertexType": "MolecularFragment"
    },
    {
      "lstAPs": [
        {
          "id": 827397,
          "atomPositionNumber": 0,
          "atomPositionNumberInMol": -1,
          "apClass": {
            "rule": "me",
            "subClass": 1,
            "bndTyp": "SINGLE"
          },
          "dirVec": {
            "x": 6.4052,
            "y": 0.4666,
            "z": 7.6784
          }
        }
      ],
      "lstSymAPs": [],
      "mol": {
        "atoms": [
          {
            "elSymbol": "C",
            "p3d": {
              "x": 5.1845,
              "y": -0.3158,
              "z": 7.9034
            }
          },
          {
            "elSymbol": "H",
            "p3d": {
              "x": 4.4018,
              "y": 0.0156,
              "z": 7.2277
            }
          },
          {
            "elSymbol": "H",
            "p3d": {
              "x": 4.8466,
              "y": -0.2064,
              "z": 8.9326
            }
          },
          {
            "elSymbol": "H",
            "p3d": {
              "x": 5.4032,
              "y": -1.3837,
              "z": 7.7252
            }
          }
        ],
        "bonds": [
          {
            "atomIds": [
              1,
              0
            ],
            "bo": "SINGLE"
          },
          {
            "atomIds": [
              2,
              0
            ],
            "bo": "SINGLE"
          },
          {
            "atomIds": [
              3,
              0
            ],
            "bo": "SINGLE"
          }
        ]
      },
      "vertexId": 495784,
      "buildingBlockId": 1,
      "buildingBlockType": "CAP",
      "isRCV": false,
      "properties": {
        "ATTACHMENT_POINTS": "1#me:1:SINGLE:6.4052%0.4666%7.6784 ",
        "OLDVERTEXID": 1518
      },
      "uniquefyingPropertyKeys": [],
      "allowedMutationTypes": [
        "DELETE",
        "EXTEND",
        "CHANGEBRANCH",
        "CHANGELINK",
        "ADDLINK",
        "DELETELINK",
        "DELETECHAIN"
      ],
      "vertexType": "MolecularFragment"
    },
    {
      "lstAPs": [
        {
          "id": 827398,
          "atomPositionNumber": 0,
          "atomPositionNumberInMol": -1,
          "apClass": {
            "rule": "bridge",
            "subClass": 0,
            "bndTyp": "SINGLE"
          },
          "dirVec": {
            "x": -2.5958,
            "y": -0.6501,
            "z": -0.7558
          }
        },
        {
          "id": 827399,
          "atomPositionNumber": 6,
          "atomPositionNumberInMol": -1,
          "apClass": {
            "rule": "bridge",
            "subClass": 0,
            "bndTyp": "SINGLE"
          },
          "dirVec": {
            "x": -0.8149,
            "y": 2.0931,
            "z": 0.1475
          }
        }
      ],
      "lstSymAPs": [],
      "mol": {
        "atoms": [
          {
            "elSymbol": "C",
            "p3d": {
              "x": -1.8258,
              "y": -0.5811,
              "z": 0.5645
            }
          },
          {
            "elSymbol": "C",
            "p3d": {
              "x": -0.3615,
              "y": -0.3647,
              "z": 0.2814
            }
          },
          {
            "elSymbol": "C",
            "p3d": {
              "x": 0.4975,
              "y": -1.4461,
              "z": 0.2179
            }
          },
          {
            "elSymbol": "C",
            "p3d": {
              "x": 1.8404,
              "y": -1.2477,
              "z": -0.0418
            }
          },
          {
            "elSymbol": "C",
            "p3d": {
              "x": 2.3248,
              "y": 0.0323,
              "z": -0.2386
            }
          },
          {
            "elSymbol": "C",
            "p3d": {
              "x": 1.4658,
              "y": 1.1133,
              "z": -0.1761
            }
          },
          {
            "elSymbol": "C",
            "p3d": {
              "x": 0.1217,
              "y": 0.9144,
              "z": 0.0794
            }
          },
          {
            "elSymbol": "H",
            "p3d": {
              "x": -2.206,
              "y": 0.246,
              "z": 1.164
            }
          },
          {
            "elSymbol": "H",
            "p3d": {
              "x": -1.956,
              "y": -1.5155,
              "z": 1.1104
            }
          },
          {
            "elSymbol": "H",
            "p3d": {
              "x": 0.1192,
              "y": -2.446,
              "z": 0.3716
            }
          },
          {
            "elSymbol": "H",
            "p3d": {
              "x": 2.5116,
              "y": -2.0924,
              "z": -0.0906
            }
          },
          {
            "elSymbol": "H",
            "p3d": {
              "x": 3.3743,
              "y": 0.1874,
              "z": -0.4409
            }
          },
          {
            "elSymbol": "H",
            "p3d": {
              "x": 1.8441,
              "y": 2.1132,
              "z": -0.3295
            }
          }
        ],
        "bonds": [
          {
            "atomIds": [
              0,
              1
            ],
            "bo": "SINGLE"
          },
          {
            "atomIds": [
              1,
              2
            ],
            "bo": "SINGLE"
          },
          {
            "atomIds": [
              2,
              3
            ],
            "bo": "DOUBLE"
          },
          {
            "atomIds": [
              3,
              4
            ],
            "bo": "SINGLE"
          },
          {
            "atomIds": [
              4,
              5
            ],
            "bo": "DOUBLE"
          },
          {
            "atomIds": [
              5,
              6
            ],
            "bo": "SINGLE"
          },
          {
            "atomIds": [
              1,
              6
            ],
            "bo": "DOUBLE"
          },
          {
            "atomIds": [
              0,
              7
            ],
            "bo": "SINGLE"
          },
          {
            "atomIds": [
              0,
              8
            ],
            "bo": "SINGLE"
          },
          {
            "atomIds": [
              2,
              9
            ],
            "bo": "SINGLE"
          },
          {
            "atomIds": [
              3,
              10
            ],
            "bo": "SINGLE"
          },
          {
            "atomIds": [
              4,
              11
            ],
            "bo": "SINGLE"
          },
          {
            "atomIds": [
              5,
              12
            ],
            "bo": "SINGLE"
          }
        ]
      },
      "vertexId": 495785,
      "buildingBlockId": 67,
      "buildingBlockType": "FRAGMENT",
      "isRCV": false,
      "properties": {
        "ATTACHMENT_POINTS": "1#bridge:0:SINGLE:-2.5958%-0.6501%-0.7558 7#bridge:0:SINGLE:-0.8149%2.0931%0.1475 ",
        "OLDVERTEXID": 37334
      },
      "uniquefyingPropertyKeys": [],
      "allowedMutationTypes": [
        "DELETE",
        "EXTEND",
        "CHANGEBRANCH",
        "CHANGELINK",
        "ADDLINK",
        "DELETELINK",
        "DELETECHAIN"
      ],
      "vertexType": "MolecularFragment"
    },
    {
      "lstAPs": [
        {
          "id": 827400,
          "atomPositionNumber": 0,
          "atomPositionNumberInMol": -1,
          "apClass": {
            "rule": "bridge",
            "subClass": 0,
            "bndTyp": "SINGLE"
          },
          "dirVec": {
            "x": -2.5958,
            "y": -0.6501,
            "z": -0.7558
          }
        },
        {
          "id": 827401,
          "atomPositionNumber": 6,
          "atomPositionNumberInMol": -1,
          "apClass": {
            "rule": "bridge",
            "subClass": 0,
            "bndTyp": "SINGLE"
          },
          "dirVec": {
            "x": -0.8149,
            "y": 2.0931,
            "z": 0.1475
          }
        }
      ],
      "lstSymAPs": [],
      "mol": {
        "atoms": [
          {
            "elSymbol": "C",
            "p3d": {
              "x": -1.8258,
              "y": -0.5811,
              "z": 0.5645
            }
          },
          {
            "elSymbol": "C",
            "p3d": {
              "x": -0.3615,
              "y": -0.3647,
              "z": 0.2814
            }
          },
          {
            "elSymbol": "C",
            "p3d": {
              "x": 0.4975,
              "y": -1.4461,
              "z": 0.2179
            }
          },
          {
            "elSymbol": "C",
            "p3d": {
              "x": 1.8404,
              "y": -1.2477,
              "z": -0.0418
            }
          },
          {
            "elSymbol": "C",
            "p3d": {
              "x": 2.3248,
              "y": 0.0323,
              "z": -0.2386
            }
          },
          {
            "elSymbol": "C",
            "p3d": {
              "x": 1.4658,
              "y": 1.1133,
              "z": -0.1761
            }
          },
          {
            "elSymbol": "C",
            "p3d": {
              "x": 0.1217,
              "y": 0.9144,
              "z": 0.0794
            }
          },
          {
            "elSymbol": "H",
            "p3d": {
              "x": -2.206,
              "y": 0.246,
              "z": 1.164
            }
          },
          {
            "elSymbol": "H",
            "p3d": {
              "x": -1.956,
              "y": -1.5155,
              "z": 1.1104
            }
          },
          {
            "elSymbol": "H",
            "p3d": {
              "x": 0.1192,
              "y": -2.446,
              "z": 0.3716
            }
          },
          {
            "elSymbol": "H",
            "p3d": {
              "x": 2.5116,
              "y": -2.0924,
              "z": -0.0906
            }
          },
          {
            "elSymbol": "H",
            "p3d": {
              "x": 3.3743,
              "y": 0.1874,
              "z": -0.4409
            }
          },
          {
            "elSymbol": "H",
            "p3d": {
              "x": 1.8441,
              "y": 2.1132,
              "z": -0.3295
            }
          }
        ],
        "bonds": [
          {
            "atomIds": [
              0,
              1
            ],
            "bo": "SINGLE"
          },
          {
            "atomIds": [
              1,
              2
            ],
            "bo": "SINGLE"
          },
          {
            "atomIds": [
              2,
              3
            ],
            "bo": "DOUBLE"
          },
          {
            "atomIds": [
              3,
              4
            ],
            "bo": "SINGLE"
          },
          {
            "atomIds": [
              4,
              5
            ],
            "bo": "DOUBLE"
          },
          {
            "atomIds": [
              5,
              6
            ],
            "bo": "SINGLE"
          },
          {
            "atomIds": [
              1,
              6
            ],
            "bo": "DOUBLE"
          },
          {
            "atomIds": [
              0,
              7
            ],
            "bo": "SINGLE"
          },
          {
            "atomIds": [
              0,
              8
            ],
            "bo": "SINGLE"
          },
          {
            "atomIds": [
              2,
              9
            ],
            "bo": "SINGLE"
          },
          {
            "atomIds": [
              3,
              10
            ],
            "bo": "SINGLE"
          },
          {
            "atomIds": [
              4,
              11
            ],
            "bo": "SINGLE"
          },
          {
            "atomIds": [
              5,
              12
            ],
            "bo": "SINGLE"
          }
        ]
      },
      "vertexId": 495786,
      "buildingBlockId": 67,
      "buildingBlockType": "FRAGMENT",
      "isRCV": false,
      "properties": {
        "ATTACHMENT_POINTS": "1#bridge:0:SINGLE:-2.5958%-0.6501%-0.7558 7#bridge:0:SINGLE:-0.8149%2.0931%0.1475 ",
        "OLDVERTEXID": 37218
      },
      "uniquefyingPropertyKeys": [],
      "allowedMutationTypes": [
        "DELETE",
        "EXTEND",
        "CHANGEBRANCH",
        "CHANGELINK",
        "ADDLINK",
        "DELETELINK",
        "DELETECHAIN"
      ],
      "vertexType": "MolecularFragment"
    },
    {
      "lstAPs": [
        {
          "id": 827402,
          "atomPositionNumber": 0,
          "atomPositionNumberInMol": -1,
          "apClass": {
            "rule": "ATminus",
            "subClass": 0,
            "bndTyp": "ANY"
          },
          "dirVec": {
            "x": 0.0109,
            "y": -0.0071,
            "z": 0.0026
          }
        }
      ],
      "lstSymAPs": [],
      "mol": {
        "atoms": [
          {
            "elSymbol": "ATM",
            "p3d": {
              "x": -0.0096,
              "y": 0.0045,
              "z": -0.0011
            }
          }
        ],
        "bonds": []
      },
      "vertexId": 495787,
      "buildingBlockId": 79,
      "buildingBlockType": "FRAGMENT",
      "isRCV": true,
      "properties": {
        "ATTACHMENT_POINTS": "1#ATminus:0:ANY:0.0109%-0.0071%0.0026 ",
        "OLDVERTEXID": 495542
      },
      "uniquefyingPropertyKeys": [],
      "allowedMutationTypes": [
        "DELETE",
        "EXTEND",
        "CHANGEBRANCH",
        "CHANGELINK",
        "ADDLINK",
        "DELETELINK",
        "DELETECHAIN"
      ],
      "vertexType": "MolecularFragment"
    },
    {
      "lstAPs": [
        {
          "id": 827403,
          "atomPositionNumber": 0,
          "atomPositionNumberInMol": -1,
          "apClass": {
            "rule": "ATminus",
            "subClass": 0,
            "bndTyp": "ANY"
          },
          "dirVec": {
            "x": 0.0109,
            "y": -0.0071,
            "z": 0.0026
          }
        }
      ],
      "lstSymAPs": [],
      "mol": {
        "atoms": [
          {
            "elSymbol": "ATM",
            "p3d": {
              "x": -0.0096,
              "y": 0.0045,
              "z": -0.0011
            }
          }
        ],
        "bonds": []
      },
      "vertexId": 495788,
      "buildingBlockId": 79,
      "buildingBlockType": "FRAGMENT",
      "isRCV": true,
      "properties": {
        "ATTACHMENT_POINTS": "1#ATminus:0:ANY:0.0109%-0.0071%0.0026 ",
        "OLDVERTEXID": 495540
      },
      "uniquefyingPropertyKeys": [],
      "allowedMutationTypes": [
        "DELETE",
        "EXTEND",
        "CHANGEBRANCH",
        "CHANGELINK",
        "ADDLINK",
        "DELETELINK",
        "DELETECHAIN"
      ],
      "vertexType": "MolecularFragment"
    }
  ],
  "gEdges": [
    {
      "srcAPID": 827386,
      "trgAPID": 827390,
      "bondType": "SINGLE"
    },
    {
      "srcAPID": 827388,
      "trgAPID": 827391,
      "bondType": "SINGLE"
    },
    {
      "srcAPID": 827387,
      "trgAPID": 827392,
      "bondType": "SINGLE"
    },
    {
      "srcAPID": 827385,
      "trgAPID": 827393,
      "bondType": "SINGLE"
    },
    {
      "srcAPID": 827384,
      "trgAPID": 827395,
      "bondType": "SINGLE"
    },
    {
      "srcAPID": 827389,
      "trgAPID": 827397,
      "bondType": "SINGLE"
    },
    {
      "srcAPID": 827396,
      "trgAPID": 827398,
      "bondType": "SINGLE"
    },
    {
      "srcAPID": 827394,
      "trgAPID": 827400,
      "bondType": "SINGLE"
    },
    {
      "srcAPID": 827401,
      "trgAPID": 827402,
      "bondType": "SINGLE"
    },
    {
      "srcAPID": 827399,
      "trgAPID": 827403,
      "bondType": "SINGLE"
    }
  ],
  "gRings": [
    {
      "vertices": [
        495781,
        495779,
        495778,
        495782,
        495786,
        495787
      ],
      "bndTyp": "SINGLE"
    },
    {
      "vertices": [
        495780,
        495779,
        495778,
        495783,
        495785,
        495788
      ],
      "bndTyp": "SINGLE"
    }
  ],
  "symVertices": [
    {
      "symIds": [
        495780,
        495781
      ]
    },
    {
      "symIds": [
        495782,
        495783
      ]
    },
    {
      "symIds": [
        495785,
        495786
      ]
    },
    {
      "symIds": [
        495787,
        495788
      ]
    }
  ]
}

> <SMILES>
[Pt]12(C#O)[P]3(N(C([H])([H])C([H])([H])N3C=4C(=C(C(=C(C4C([H])([H])O1)[H])[H])[H])[H])C=5C(=C(C(=C(C5C([H])([H])O2)[H])[H])[H])[H])C([H])([H])[H]

$$$$
