M20000570
  CDK     05042206343D

 46 50  0  0  0  0  0  0  0  0999 V2000
    1.9858   -0.0094    0.0127 Pt  0  0  0  0  0  0  0  0  0  0  0  0
    3.9012   -0.0187    0.0253 C   0  0  0  0  0  0  0  0  0  0  0  0
    5.0465   -0.0242    0.0331 O   0  0  0  0  0  0  0  0  0  0  0  0
   -0.8257   -1.0947   -0.2453 N   0  0  2  0  0  0  0  0  0  0  0  0
   -0.0389    0.0002   -0.0002 C   0  0  0  0  0  0  0  0  0  0  0  0
   -0.8184    1.1024    0.2352 N   0  0  2  0  0  0  0  0  0  0  0  0
   -2.2812    0.7645    0.1497 C   0  0  0  0  0  0  0  0  0  0  0  0
   -2.2862   -0.7433   -0.1777 C   0  0  0  0  0  0  0  0  0  0  0  0
   -2.7665    1.3709   -0.6425 H   0  0  0  0  0  0  0  0  0  0  0  0
   -2.7868   -1.3451    0.6085 H   0  0  0  0  0  0  0  0  0  0  0  0
   -2.7840   -0.9583   -1.1457 H   0  0  0  0  0  0  0  0  0  0  0  0
   -2.7887    0.9841    1.1116 H   0  0  0  0  0  0  0  0  0  0  0  0
    1.8886   -2.1811    0.8487 S   0  0  0  0  0  0  0  0  0  0  0  0
   -0.4503   -2.5149   -0.5354 C   0  0  2  0  0  0  0  0  0  0  0  0
    1.0674   -2.7152   -0.6927 C   0  0  2  0  0  0  0  0  0  0  0  0
   -1.1592   -2.9912   -1.8276 C   0  0  0  0  0  0  0  0  0  0  0  0
   -0.8405   -4.4695   -2.0894 C   0  0  0  0  0  0  0  0  0  0  0  0
    0.6714   -4.7134   -2.1773 C   0  0  0  0  0  0  0  0  0  0  0  0
    1.3923   -4.1898   -0.9269 C   0  0  0  0  0  0  0  0  0  0  0  0
   -0.8201   -3.1225    0.3382 H   0  0  0  0  0  0  0  0  0  0  0  0
    1.4596   -2.0930   -1.5385 H   0  0  0  0  0  0  0  0  0  0  0  0
   -0.8323   -2.3746   -2.6881 H   0  0  0  0  0  0  0  0  0  0  0  0
   -2.2536   -2.8587   -1.7536 H   0  0  0  0  0  0  0  0  0  0  0  0
   -1.3294   -4.7933   -3.0283 H   0  0  0  0  0  0  0  0  0  0  0  0
   -1.2756   -5.0976   -1.2874 H   0  0  0  0  0  0  0  0  0  0  0  0
    0.8735   -5.7941   -2.3018 H   0  0  0  0  0  0  0  0  0  0  0  0
    1.0813   -4.2224   -3.0813 H   0  0  0  0  0  0  0  0  0  0  0  0
    1.1123   -4.7998   -0.0441 H   0  0  0  0  0  0  0  0  0  0  0  0
    2.4883   -4.3206   -1.0388 H   0  0  0  0  0  0  0  0  0  0  0  0
    1.9194    2.1627   -0.8248 S   0  0  0  0  0  0  0  0  0  0  0  0
   -0.4334    2.5191    0.5298 C   0  0  2  0  0  0  0  0  0  0  0  0
    1.0840    2.7050    0.7062 C   0  0  2  0  0  0  0  0  0  0  0  0
   -1.1542    3.0026    1.8127 C   0  0  0  0  0  0  0  0  0  0  0  0
   -0.8245    4.4778    2.0784 C   0  0  0  0  0  0  0  0  0  0  0  0
    0.6885    4.7070    2.1856 C   0  0  0  0  0  0  0  0  0  0  0  0
    1.4201    4.1764    0.9444 C   0  0  0  0  0  0  0  0  0  0  0  0
   -0.7863    3.1299   -0.3487 H   0  0  0  0  0  0  0  0  0  0  0  0
    1.4596    2.0792    1.5569 H   0  0  0  0  0  0  0  0  0  0  0  0
   -0.8445    2.3830    2.6774 H   0  0  0  0  0  0  0  0  0  0  0  0
   -2.2486    2.8808    1.7245 H   0  0  0  0  0  0  0  0  0  0  0  0
   -1.3222    4.8066    3.0108 H   0  0  0  0  0  0  0  0  0  0  0  0
   -1.2430    5.1098    1.2708 H   0  0  0  0  0  0  0  0  0  0  0  0
    0.8996    5.7857    2.3128 H   0  0  0  0  0  0  0  0  0  0  0  0
    1.0821    4.2121    3.0948 H   0  0  0  0  0  0  0  0  0  0  0  0
    1.1570    4.7889    0.0582 H   0  0  0  0  0  0  0  0  0  0  0  0
    2.5158    4.2967    1.0700 H   0  0  0  0  0  0  0  0  0  0  0  0
  2  3  3  0  0  0  0
  1  2  1  0  0  0  0
  4  5  1  0  0  0  0
  6  5  1  0  0  0  0
  7  6  1  0  0  0  0
  7  8  1  0  0  0  0
  8  4  1  0  0  0  0
  9  7  1  0  0  0  0
 10  8  1  0  0  0  0
  1  5  1  0  0  0  0
  8 11  1  0  0  0  0
  7 12  1  0  0  0  0
  1 13  1  0  0  0  0
 14 15  1  0  0  0  0
 16 17  1  0  0  0  0
 17 18  1  0  0  0  0
 18 19  1  0  0  0  0
 14 16  1  0  0  0  0
 15 19  1  0  0  0  0
 14 20  1  0  0  0  0
 15 21  1  0  0  0  0
 16 22  1  0  0  0  0
 16 23  1  0  0  0  0
 17 24  1  0  0  0  0
 17 25  1  0  0  0  0
 18 26  1  0  0  0  0
 18 27  1  0  0  0  0
 19 28  1  0  0  0  0
 19 29  1  0  0  0  0
 13 15  1  0  0  0  0
  1 30  1  0  0  0  0
 31 32  1  0  0  0  0
 33 34  1  0  0  0  0
 34 35  1  0  0  0  0
 35 36  1  0  0  0  0
 31 33  1  0  0  0  0
 32 36  1  0  0  0  0
 31 37  1  0  0  0  0
 32 38  1  0  0  0  0
 33 39  1  0  0  0  0
 33 40  1  0  0  0  0
 34 41  1  0  0  0  0
 34 42  1  0  0  0  0
 35 43  1  0  0  0  0
 35 44  1  0  0  0  0
 36 45  1  0  0  0  0
 36 46  1  0  0  0  0
 30 32  1  0  0  0  0
  6 31  1  0  0  0  0
  4 14  1  0  0  0  0
M  END
> <PM6_ENERGY>
-125.570

> <UID>
LXJBAKGKNOVONF-ADUUAFKWNA-L

> <FITNESS>
1.14534

> <GCODE>
3070

> <GraphENC>
3070 109894_1_0,109895_60_1,109896_79_1,109897_79_1,109898_1_2,109899_74_1,109900_74_1,109901_1_2,109902_71_1,109903_71_1,109904_80_1,109905_80_1, 109894_2_109895_1_SINGLE_scaff:0_MImidazolidinylidene:1,109895_2_109896_0_SINGLE_LImidazolidinylideneSubNL:0_ATplus:0,109895_0_109897_0_SINGLE_LImidazolidinylideneSubNL:0_ATplus:0,109895_4_109898_0_SINGLE_LImidazolidinylideneSubCL:0_hyd:1,109894_0_109899_0_SINGLE_Xlig:0_Xlig:1,109894_1_109900_0_SINGLE_Xlig:0_Xlig:1,109895_3_109901_0_SINGLE_LImidazolidinylideneSubCL:0_hyd:1,109899_1_109902_1_SINGLE_bridge:1_bridge:0,109900_1_109903_1_SINGLE_bridge:1_bridge:0,109903_0_109904_0_SINGLE_bridge:0_ATminus:0,109902_0_109905_0_SINGLE_bridge:0_ATminus:0, DENOPTIMRing [vertices=[109896_79_1, 109895_60_1, 109894_1_0, 109900_74_1, 109903_71_1, 109904_80_1]] DENOPTIMRing [vertices=[109897_79_1, 109895_60_1, 109894_1_0, 109899_74_1, 109902_71_1, 109905_80_1]] SymmetricSet [symIds=[109896, 109897]] SymmetricSet [symIds=[109899, 109900]] SymmetricSet [symIds=[109898, 109901]] SymmetricSet [symIds=[109902, 109903]] SymmetricSet [symIds=[109904, 109905]] 

> <GraphJson>
{
  "graphId": 3070,
  "gVertices": [
    {
      "lstAPs": [
        {
          "id": 180708,
          "atomPositionNumber": 0,
          "atomPositionNumberInMol": -1,
          "apClass": {
            "rule": "Xlig",
            "subClass": 0,
            "bndTyp": "SINGLE"
          },
          "dirVec": {
            "x": -2.3339,
            "y": -0.0087,
            "z": 0.8172
          }
        },
        {
          "id": 180709,
          "atomPositionNumber": 0,
          "atomPositionNumberInMol": -1,
          "apClass": {
            "rule": "Xlig",
            "subClass": 0,
            "bndTyp": "SINGLE"
          },
          "dirVec": {
            "x": 2.336,
            "y": -5.0E-4,
            "z": 0.829
          }
        },
        {
          "id": 180710,
          "atomPositionNumber": 0,
          "atomPositionNumberInMol": -1,
          "apClass": {
            "rule": "scaff",
            "subClass": 0,
            "bndTyp": "SINGLE"
          },
          "dirVec": {
            "x": -0.0095,
            "y": 0.0046,
            "z": -1.7113
          }
        }
      ],
      "lstSymAPs": [
        {
          "symIds": [
            0,
            1
          ]
        }
      ],
      "mol": {
        "atoms": [
          {
            "elSymbol": "Pt",
            "p3d": {
              "x": -0.0098,
              "y": 0.0049,
              "z": 0.6289
            }
          },
          {
            "elSymbol": "C",
            "p3d": {
              "x": -6.0E-4,
              "y": 0.0016,
              "z": 2.5609
            }
          },
          {
            "elSymbol": "O",
            "p3d": {
              "x": 0.0025,
              "y": -0.0041,
              "z": 3.6974
            }
          },
          {
            "elSymbol": "Du",
            "p3d": {
              "x": -0.007,
              "y": 1.0013,
              "z": 0.6372
            }
          },
          {
            "elSymbol": "Du",
            "p3d": {
              "x": -0.0014,
              "y": 0.9902,
              "z": 2.5698
            }
          }
        ],
        "bonds": [
          {
            "atomIds": [
              1,
              2
            ],
            "bo": "TRIPLE"
          },
          {
            "atomIds": [
              0,
              1
            ],
            "bo": "SINGLE"
          },
          {
            "atomIds": [
              3,
              0
            ],
            "bo": "SINGLE"
          },
          {
            "atomIds": [
              4,
              1
            ],
            "bo": "SINGLE"
          }
        ]
      },
      "vertexId": 109894,
      "buildingBlockId": 0,
      "buildingBlockType": "SCAFFOLD",
      "isRCV": false,
      "properties": {
        "ATTACHMENT_POINTS": "1#Xlig:0:SINGLE:-2.3339%-0.0087%0.8172,Xlig:0:SINGLE:2.3360%-0.0005%0.8290,scaff:0:SINGLE:-0.0095%0.0046%-1.7113 ",
        "OLDVERTEXID": 205
      },
      "uniquefyingPropertyKeys": [],
      "allowedMutationTypes": [
        "DELETE",
        "EXTEND",
        "CHANGEBRANCH",
        "CHANGELINK",
        "ADDLINK",
        "DELETELINK",
        "DELETECHAIN"
      ],
      "vertexType": "MolecularFragment"
    },
    {
      "lstAPs": [
        {
          "id": 180711,
          "atomPositionNumber": 0,
          "atomPositionNumberInMol": -1,
          "apClass": {
            "rule": "LImidazolidinylideneSubNL",
            "subClass": 0,
            "bndTyp": "SINGLE"
          },
          "dirVec": {
            "x": 0.9114374237224112,
            "y": -2.269162114034064,
            "z": -1.73512216162091
          }
        },
        {
          "id": 180712,
          "atomPositionNumber": 1,
          "atomPositionNumberInMol": -1,
          "apClass": {
            "rule": "MImidazolidinylidene",
            "subClass": 1,
            "bndTyp": "SINGLE"
          },
          "dirVec": {
            "x": -0.009781397536660474,
            "y": 0.004881397536660548,
            "z": 0.4837883843094877
          }
        },
        {
          "id": 180713,
          "atomPositionNumber": 2,
          "atomPositionNumberInMol": -1,
          "apClass": {
            "rule": "LImidazolidinylideneSubNL",
            "subClass": 0,
            "bndTyp": "SINGLE"
          },
          "dirVec": {
            "x": -0.9076453420528022,
            "y": 2.2675608164958976,
            "z": -1.810031993173502
          }
        },
        {
          "id": 180714,
          "atomPositionNumber": 3,
          "atomPositionNumberInMol": -1,
          "apClass": {
            "rule": "LImidazolidinylideneSubCL",
            "subClass": 0,
            "bndTyp": "SINGLE"
          },
          "dirVec": {
            "x": -1.9597652498362117,
            "y": 0.3654872507731368,
            "z": -4.371946970338932
          }
        },
        {
          "id": 180715,
          "atomPositionNumber": 4,
          "atomPositionNumberInMol": -1,
          "apClass": {
            "rule": "LImidazolidinylideneSubCL",
            "subClass": 0,
            "bndTyp": "SINGLE"
          },
          "dirVec": {
            "x": 1.7398715117890693,
            "y": -0.589379512252807,
            "z": -4.485128403883309
          }
        }
      ],
      "lstSymAPs": [
        {
          "symIds": [
            0,
            2
          ]
        },
        {
          "symIds": [
            3,
            4
          ]
        }
      ],
      "mol": {
        "atoms": [
          {
            "elSymbol": "N",
            "p3d": {
              "x": 0.4620029374357079,
              "y": -1.0012870581278954,
              "z": -2.317095069192333
            }
          },
          {
            "elSymbol": "C",
            "p3d": {
              "x": -0.009518602463339527,
              "y": 0.004618602463339452,
              "z": -1.5661883843094881
            }
          },
          {
            "elSymbol": "N",
            "p3d": {
              "x": -0.495416972415669,
              "y": 0.9580453104531106,
              "z": -2.3396500165637697
            }
          },
          {
            "elSymbol": "C",
            "p3d": {
              "x": -0.5068910066519264,
              "y": 0.5648308504550289,
              "z": -3.756401291483529
            }
          },
          {
            "elSymbol": "C",
            "p3d": {
              "x": 0.3605416829394851,
              "y": -0.6971172079421345,
              "z": -3.770728780301849
            }
          },
          {
            "elSymbol": "H",
            "p3d": {
              "x": -0.1309303334286437,
              "y": 1.330189770633253,
              "z": -4.435352464612437
            }
          },
          {
            "elSymbol": "H",
            "p3d": {
              "x": -0.08828628907134929,
              "y": -1.5032723399177854,
              "z": -4.3711397435011925
            }
          }
        ],
        "bonds": [
          {
            "atomIds": [
              0,
              1
            ],
            "bo": "SINGLE"
          },
          {
            "atomIds": [
              2,
              1
            ],
            "bo": "SINGLE"
          },
          {
            "atomIds": [
              3,
              2
            ],
            "bo": "SINGLE"
          },
          {
            "atomIds": [
              3,
              4
            ],
            "bo": "SINGLE"
          },
          {
            "atomIds": [
              4,
              0
            ],
            "bo": "SINGLE"
          },
          {
            "atomIds": [
              5,
              3
            ],
            "bo": "SINGLE"
          },
          {
            "atomIds": [
              6,
              4
            ],
            "bo": "SINGLE"
          }
        ]
      },
      "vertexId": 109895,
      "buildingBlockId": 59,
      "buildingBlockType": "FRAGMENT",
      "isRCV": false,
      "properties": {
        "ATTACHMENT_POINTS": "1#LImidazolidinylideneSubNL:0:SINGLE:0.9114%-2.2692%-1.7351 2#MImidazolidinylidene:1:SINGLE:-0.0098%0.0049%0.4838 3#LImidazolidinylideneSubNL:0:SINGLE:-0.9076%2.2676%-1.8100 4#LImidazolidinylideneSubCL:0:SINGLE:-1.9598%0.3655%-4.3719 5#LImidazolidinylideneSubCL:0:SINGLE:1.7399%-0.5894%-4.4851 ",
        "OLDVERTEXID": 206
      },
      "uniquefyingPropertyKeys": [],
      "allowedMutationTypes": [
        "DELETE",
        "EXTEND",
        "CHANGEBRANCH",
        "CHANGELINK",
        "ADDLINK",
        "DELETELINK",
        "DELETECHAIN"
      ],
      "vertexType": "MolecularFragment"
    },
    {
      "lstAPs": [
        {
          "id": 180716,
          "atomPositionNumber": 0,
          "atomPositionNumberInMol": -1,
          "apClass": {
            "rule": "ATplus",
            "subClass": 0,
            "bndTyp": "ANY"
          },
          "dirVec": {
            "x": -0.9076453420528022,
            "y": 2.2675608164958976,
            "z": -1.810031993173502
          }
        }
      ],
      "lstSymAPs": [],
      "mol": {
        "atoms": [
          {
            "elSymbol": "ATP",
            "p3d": {
              "x": -0.9135261874114748,
              "y": 2.2862423502113005,
              "z": -1.8024764683136634
            }
          }
        ],
        "bonds": []
      },
      "vertexId": 109896,
      "buildingBlockId": 78,
      "buildingBlockType": "FRAGMENT",
      "isRCV": true,
      "properties": {
        "ATTACHMENT_POINTS": "1#ATplus:0:ANY:-0.9076%2.2676%-1.8100 ",
        "OLDVERTEXID": 207
      },
      "uniquefyingPropertyKeys": [],
      "allowedMutationTypes": [
        "DELETE",
        "EXTEND",
        "CHANGEBRANCH",
        "CHANGELINK",
        "ADDLINK",
        "DELETELINK",
        "DELETECHAIN"
      ],
      "vertexType": "MolecularFragment"
    },
    {
      "lstAPs": [
        {
          "id": 180717,
          "atomPositionNumber": 0,
          "atomPositionNumberInMol": -1,
          "apClass": {
            "rule": "ATplus",
            "subClass": 0,
            "bndTyp": "ANY"
          },
          "dirVec": {
            "x": 0.9114374237224112,
            "y": -2.269162114034064,
            "z": -1.73512216162091
          }
        }
      ],
      "lstSymAPs": [],
      "mol": {
        "atoms": [
          {
            "elSymbol": "ATP",
            "p3d": {
              "x": 0.9178744709033246,
              "y": -2.28732131588304,
              "z": -1.7267868264867459
            }
          }
        ],
        "bonds": []
      },
      "vertexId": 109897,
      "buildingBlockId": 78,
      "buildingBlockType": "FRAGMENT",
      "isRCV": true,
      "properties": {
        "ATTACHMENT_POINTS": "1#ATplus:0:ANY:0.9114%-2.2692%-1.7351 ",
        "OLDVERTEXID": 208
      },
      "uniquefyingPropertyKeys": [],
      "allowedMutationTypes": [
        "DELETE",
        "EXTEND",
        "CHANGEBRANCH",
        "CHANGELINK",
        "ADDLINK",
        "DELETELINK",
        "DELETECHAIN"
      ],
      "vertexType": "MolecularFragment"
    },
    {
      "lstAPs": [
        {
          "id": 180718,
          "atomPositionNumber": 0,
          "atomPositionNumberInMol": -1,
          "apClass": {
            "rule": "hyd",
            "subClass": 1,
            "bndTyp": "SINGLE"
          },
          "dirVec": {
            "x": 0.4589,
            "y": -1.751,
            "z": 0.3869
          }
        }
      ],
      "lstSymAPs": [],
      "mol": {
        "atoms": [
          {
            "elSymbol": "H",
            "p3d": {
              "x": 0.1925,
              "y": -2.5024,
              "z": 1.1483
            }
          }
        ],
        "bonds": []
      },
      "vertexId": 109898,
      "buildingBlockId": 0,
      "buildingBlockType": "CAP",
      "isRCV": false,
      "properties": {
        "ATTACHMENT_POINTS": "1#hyd:1:SINGLE:0.4589%-1.7510%0.3869 ",
        "OLDVERTEXID": 1066
      },
      "uniquefyingPropertyKeys": [],
      "allowedMutationTypes": [
        "DELETE",
        "EXTEND",
        "CHANGEBRANCH",
        "CHANGELINK",
        "ADDLINK",
        "DELETELINK",
        "DELETECHAIN"
      ],
      "vertexType": "MolecularFragment"
    },
    {
      "lstAPs": [
        {
          "id": 180719,
          "atomPositionNumber": 0,
          "atomPositionNumberInMol": -1,
          "apClass": {
            "rule": "Xlig",
            "subClass": 1,
            "bndTyp": "SINGLE"
          },
          "dirVec": {
            "x": -0.102,
            "y": 0.0185,
            "z": -1.0265
          }
        },
        {
          "id": 180720,
          "atomPositionNumber": 0,
          "atomPositionNumberInMol": -1,
          "apClass": {
            "rule": "bridge",
            "subClass": 1,
            "bndTyp": "SINGLE"
          },
          "dirVec": {
            "x": -0.626,
            "y": 2.4866,
            "z": 0.7805
          }
        }
      ],
      "lstSymAPs": [],
      "mol": {
        "atoms": [
          {
            "elSymbol": "S",
            "p3d": {
              "x": -0.3267,
              "y": 2.3403,
              "z": -1.0022
            }
          }
        ],
        "bonds": []
      },
      "vertexId": 109899,
      "buildingBlockId": 73,
      "buildingBlockType": "FRAGMENT",
      "isRCV": false,
      "properties": {
        "ATTACHMENT_POINTS": "1#Xlig:1:SINGLE:-0.1020%0.0185%-1.0265,bridge:1:SINGLE:-0.6260%2.4866%0.7805 ",
        "OLDVERTEXID": 1022
      },
      "uniquefyingPropertyKeys": [],
      "allowedMutationTypes": [
        "DELETE",
        "EXTEND",
        "CHANGEBRANCH",
        "CHANGELINK",
        "ADDLINK",
        "DELETELINK",
        "DELETECHAIN"
      ],
      "vertexType": "MolecularFragment"
    },
    {
      "lstAPs": [
        {
          "id": 180721,
          "atomPositionNumber": 0,
          "atomPositionNumberInMol": -1,
          "apClass": {
            "rule": "Xlig",
            "subClass": 1,
            "bndTyp": "SINGLE"
          },
          "dirVec": {
            "x": -0.102,
            "y": 0.0185,
            "z": -1.0265
          }
        },
        {
          "id": 180722,
          "atomPositionNumber": 0,
          "atomPositionNumberInMol": -1,
          "apClass": {
            "rule": "bridge",
            "subClass": 1,
            "bndTyp": "SINGLE"
          },
          "dirVec": {
            "x": -0.626,
            "y": 2.4866,
            "z": 0.7805
          }
        }
      ],
      "lstSymAPs": [],
      "mol": {
        "atoms": [
          {
            "elSymbol": "S",
            "p3d": {
              "x": -0.3267,
              "y": 2.3403,
              "z": -1.0022
            }
          }
        ],
        "bonds": []
      },
      "vertexId": 109900,
      "buildingBlockId": 73,
      "buildingBlockType": "FRAGMENT",
      "isRCV": false,
      "properties": {
        "ATTACHMENT_POINTS": "1#Xlig:1:SINGLE:-0.1020%0.0185%-1.0265,bridge:1:SINGLE:-0.6260%2.4866%0.7805 ",
        "OLDVERTEXID": 1065
      },
      "uniquefyingPropertyKeys": [],
      "allowedMutationTypes": [
        "DELETE",
        "EXTEND",
        "CHANGEBRANCH",
        "CHANGELINK",
        "ADDLINK",
        "DELETELINK",
        "DELETECHAIN"
      ],
      "vertexType": "MolecularFragment"
    },
    {
      "lstAPs": [
        {
          "id": 180723,
          "atomPositionNumber": 0,
          "atomPositionNumberInMol": -1,
          "apClass": {
            "rule": "hyd",
            "subClass": 1,
            "bndTyp": "SINGLE"
          },
          "dirVec": {
            "x": 0.4589,
            "y": -1.751,
            "z": 0.3869
          }
        }
      ],
      "lstSymAPs": [],
      "mol": {
        "atoms": [
          {
            "elSymbol": "H",
            "p3d": {
              "x": 0.1925,
              "y": -2.5024,
              "z": 1.1483
            }
          }
        ],
        "bonds": []
      },
      "vertexId": 109901,
      "buildingBlockId": 0,
      "buildingBlockType": "CAP",
      "isRCV": false,
      "properties": {
        "ATTACHMENT_POINTS": "1#hyd:1:SINGLE:0.4589%-1.7510%0.3869 ",
        "OLDVERTEXID": 1030
      },
      "uniquefyingPropertyKeys": [],
      "allowedMutationTypes": [
        "DELETE",
        "EXTEND",
        "CHANGEBRANCH",
        "CHANGELINK",
        "ADDLINK",
        "DELETELINK",
        "DELETECHAIN"
      ],
      "vertexType": "MolecularFragment"
    },
    {
      "lstAPs": [
        {
          "id": 180724,
          "atomPositionNumber": 0,
          "atomPositionNumberInMol": -1,
          "apClass": {
            "rule": "bridge",
            "subClass": 0,
            "bndTyp": "SINGLE"
          },
          "dirVec": {
            "x": 0.6064,
            "y": 0.7242,
            "z": -1.2721
          }
        },
        {
          "id": 180725,
          "atomPositionNumber": 1,
          "atomPositionNumberInMol": -1,
          "apClass": {
            "rule": "bridge",
            "subClass": 0,
            "bndTyp": "SINGLE"
          },
          "dirVec": {
            "x": -0.30759999999999993,
            "y": -1.2087,
            "z": 0.009700000000000042
          }
        }
      ],
      "lstSymAPs": [
        {
          "symIds": [
            0,
            1
          ]
        }
      ],
      "mol": {
        "atoms": [
          {
            "elSymbol": "C",
            "p3d": {
              "x": 1.4767,
              "y": 0.4111,
              "z": -0.0358
            }
          },
          {
            "elSymbol": "C",
            "p3d": {
              "x": 0.4613,
              "y": -0.2385,
              "z": 0.9321
            }
          },
          {
            "elSymbol": "C",
            "p3d": {
              "x": 2.2309,
              "y": 1.5817,
              "z": 0.6566
            }
          },
          {
            "elSymbol": "C",
            "p3d": {
              "x": 2.9447,
              "y": 1.0663,
              "z": 1.9414
            }
          },
          {
            "elSymbol": "C",
            "p3d": {
              "x": 1.9846,
              "y": 0.3014,
              "z": 2.9005
            }
          },
          {
            "elSymbol": "C",
            "p3d": {
              "x": 1.1795,
              "y": -0.8206,
              "z": 2.1815
            }
          },
          {
            "elSymbol": "H",
            "p3d": {
              "x": 2.2245,
              "y": -0.3328,
              "z": -0.3416
            }
          },
          {
            "elSymbol": "H",
            "p3d": {
              "x": -0.2539,
              "y": 0.5182,
              "z": 1.28
            }
          },
          {
            "elSymbol": "H",
            "p3d": {
              "x": 1.5281,
              "y": 2.3785,
              "z": 0.9216
            }
          },
          {
            "elSymbol": "H",
            "p3d": {
              "x": 2.9736,
              "y": 1.9987,
              "z": -0.0312
            }
          },
          {
            "elSymbol": "H",
            "p3d": {
              "x": 3.3845,
              "y": 1.9153,
              "z": 2.4737
            }
          },
          {
            "elSymbol": "H",
            "p3d": {
              "x": 3.763,
              "y": 0.3987,
              "z": 1.6524
            }
          },
          {
            "elSymbol": "H",
            "p3d": {
              "x": 2.5686,
              "y": -0.1375,
              "z": 3.7143
            }
          },
          {
            "elSymbol": "H",
            "p3d": {
              "x": 1.2863,
              "y": 1.0176,
              "z": 3.3441
            }
          },
          {
            "elSymbol": "H",
            "p3d": {
              "x": 1.8581,
              "y": -1.6264,
              "z": 1.8862
            }
          },
          {
            "elSymbol": "H",
            "p3d": {
              "x": 0.4395,
              "y": -1.2349,
              "z": 2.8715
            }
          }
        ],
        "bonds": [
          {
            "atomIds": [
              0,
              1
            ],
            "bo": "SINGLE"
          },
          {
            "atomIds": [
              2,
              3
            ],
            "bo": "SINGLE"
          },
          {
            "atomIds": [
              3,
              4
            ],
            "bo": "SINGLE"
          },
          {
            "atomIds": [
              4,
              5
            ],
            "bo": "SINGLE"
          },
          {
            "atomIds": [
              0,
              2
            ],
            "bo": "SINGLE"
          },
          {
            "atomIds": [
              1,
              5
            ],
            "bo": "SINGLE"
          },
          {
            "atomIds": [
              0,
              6
            ],
            "bo": "SINGLE"
          },
          {
            "atomIds": [
              1,
              7
            ],
            "bo": "SINGLE"
          },
          {
            "atomIds": [
              2,
              8
            ],
            "bo": "SINGLE"
          },
          {
            "atomIds": [
              2,
              9
            ],
            "bo": "SINGLE"
          },
          {
            "atomIds": [
              3,
              10
            ],
            "bo": "SINGLE"
          },
          {
            "atomIds": [
              3,
              11
            ],
            "bo": "SINGLE"
          },
          {
            "atomIds": [
              4,
              12
            ],
            "bo": "SINGLE"
          },
          {
            "atomIds": [
              4,
              13
            ],
            "bo": "SINGLE"
          },
          {
            "atomIds": [
              5,
              14
            ],
            "bo": "SINGLE"
          },
          {
            "atomIds": [
              5,
              15
            ],
            "bo": "SINGLE"
          }
        ]
      },
      "vertexId": 109902,
      "buildingBlockId": 70,
      "buildingBlockType": "FRAGMENT",
      "isRCV": false,
      "properties": {
        "ATTACHMENT_POINTS": "1#bridge:0:SINGLE:0.6064%0.7242%-1.2721 2#bridge:0:SINGLE:-0.3076%-1.2087%0.0097 ",
        "OLDVERTEXID": 26017
      },
      "uniquefyingPropertyKeys": [],
      "allowedMutationTypes": [
        "DELETE",
        "EXTEND",
        "CHANGEBRANCH",
        "CHANGELINK",
        "ADDLINK",
        "DELETELINK",
        "DELETECHAIN"
      ],
      "vertexType": "MolecularFragment"
    },
    {
      "lstAPs": [
        {
          "id": 180726,
          "atomPositionNumber": 0,
          "atomPositionNumberInMol": -1,
          "apClass": {
            "rule": "bridge",
            "subClass": 0,
            "bndTyp": "SINGLE"
          },
          "dirVec": {
            "x": 0.6064,
            "y": 0.7242,
            "z": -1.2721
          }
        },
        {
          "id": 180727,
          "atomPositionNumber": 1,
          "atomPositionNumberInMol": -1,
          "apClass": {
            "rule": "bridge",
            "subClass": 0,
            "bndTyp": "SINGLE"
          },
          "dirVec": {
            "x": -0.30759999999999993,
            "y": -1.2087,
            "z": 0.009700000000000042
          }
        }
      ],
      "lstSymAPs": [
        {
          "symIds": [
            0,
            1
          ]
        }
      ],
      "mol": {
        "atoms": [
          {
            "elSymbol": "C",
            "p3d": {
              "x": 1.4767,
              "y": 0.4111,
              "z": -0.0358
            }
          },
          {
            "elSymbol": "C",
            "p3d": {
              "x": 0.4613,
              "y": -0.2385,
              "z": 0.9321
            }
          },
          {
            "elSymbol": "C",
            "p3d": {
              "x": 2.2309,
              "y": 1.5817,
              "z": 0.6566
            }
          },
          {
            "elSymbol": "C",
            "p3d": {
              "x": 2.9447,
              "y": 1.0663,
              "z": 1.9414
            }
          },
          {
            "elSymbol": "C",
            "p3d": {
              "x": 1.9846,
              "y": 0.3014,
              "z": 2.9005
            }
          },
          {
            "elSymbol": "C",
            "p3d": {
              "x": 1.1795,
              "y": -0.8206,
              "z": 2.1815
            }
          },
          {
            "elSymbol": "H",
            "p3d": {
              "x": 2.2245,
              "y": -0.3328,
              "z": -0.3416
            }
          },
          {
            "elSymbol": "H",
            "p3d": {
              "x": -0.2539,
              "y": 0.5182,
              "z": 1.28
            }
          },
          {
            "elSymbol": "H",
            "p3d": {
              "x": 1.5281,
              "y": 2.3785,
              "z": 0.9216
            }
          },
          {
            "elSymbol": "H",
            "p3d": {
              "x": 2.9736,
              "y": 1.9987,
              "z": -0.0312
            }
          },
          {
            "elSymbol": "H",
            "p3d": {
              "x": 3.3845,
              "y": 1.9153,
              "z": 2.4737
            }
          },
          {
            "elSymbol": "H",
            "p3d": {
              "x": 3.763,
              "y": 0.3987,
              "z": 1.6524
            }
          },
          {
            "elSymbol": "H",
            "p3d": {
              "x": 2.5686,
              "y": -0.1375,
              "z": 3.7143
            }
          },
          {
            "elSymbol": "H",
            "p3d": {
              "x": 1.2863,
              "y": 1.0176,
              "z": 3.3441
            }
          },
          {
            "elSymbol": "H",
            "p3d": {
              "x": 1.8581,
              "y": -1.6264,
              "z": 1.8862
            }
          },
          {
            "elSymbol": "H",
            "p3d": {
              "x": 0.4395,
              "y": -1.2349,
              "z": 2.8715
            }
          }
        ],
        "bonds": [
          {
            "atomIds": [
              0,
              1
            ],
            "bo": "SINGLE"
          },
          {
            "atomIds": [
              2,
              3
            ],
            "bo": "SINGLE"
          },
          {
            "atomIds": [
              3,
              4
            ],
            "bo": "SINGLE"
          },
          {
            "atomIds": [
              4,
              5
            ],
            "bo": "SINGLE"
          },
          {
            "atomIds": [
              0,
              2
            ],
            "bo": "SINGLE"
          },
          {
            "atomIds": [
              1,
              5
            ],
            "bo": "SINGLE"
          },
          {
            "atomIds": [
              0,
              6
            ],
            "bo": "SINGLE"
          },
          {
            "atomIds": [
              1,
              7
            ],
            "bo": "SINGLE"
          },
          {
            "atomIds": [
              2,
              8
            ],
            "bo": "SINGLE"
          },
          {
            "atomIds": [
              2,
              9
            ],
            "bo": "SINGLE"
          },
          {
            "atomIds": [
              3,
              10
            ],
            "bo": "SINGLE"
          },
          {
            "atomIds": [
              3,
              11
            ],
            "bo": "SINGLE"
          },
          {
            "atomIds": [
              4,
              12
            ],
            "bo": "SINGLE"
          },
          {
            "atomIds": [
              4,
              13
            ],
            "bo": "SINGLE"
          },
          {
            "atomIds": [
              5,
              14
            ],
            "bo": "SINGLE"
          },
          {
            "atomIds": [
              5,
              15
            ],
            "bo": "SINGLE"
          }
        ]
      },
      "vertexId": 109903,
      "buildingBlockId": 70,
      "buildingBlockType": "FRAGMENT",
      "isRCV": false,
      "properties": {
        "ATTACHMENT_POINTS": "1#bridge:0:SINGLE:0.6064%0.7242%-1.2721 2#bridge:0:SINGLE:-0.3076%-1.2087%0.0097 ",
        "OLDVERTEXID": 26287
      },
      "uniquefyingPropertyKeys": [],
      "allowedMutationTypes": [
        "DELETE",
        "EXTEND",
        "CHANGEBRANCH",
        "CHANGELINK",
        "ADDLINK",
        "DELETELINK",
        "DELETECHAIN"
      ],
      "vertexType": "MolecularFragment"
    },
    {
      "lstAPs": [
        {
          "id": 180728,
          "atomPositionNumber": 0,
          "atomPositionNumberInMol": -1,
          "apClass": {
            "rule": "ATminus",
            "subClass": 0,
            "bndTyp": "ANY"
          },
          "dirVec": {
            "x": 0.0109,
            "y": -0.0071,
            "z": 0.0026
          }
        }
      ],
      "lstSymAPs": [],
      "mol": {
        "atoms": [
          {
            "elSymbol": "ATM",
            "p3d": {
              "x": -0.0096,
              "y": 0.0045,
              "z": -0.0011
            }
          }
        ],
        "bonds": []
      },
      "vertexId": 109904,
      "buildingBlockId": 79,
      "buildingBlockType": "FRAGMENT",
      "isRCV": true,
      "properties": {
        "ATTACHMENT_POINTS": "1#ATminus:0:ANY:0.0109%-0.0071%0.0026 ",
        "OLDVERTEXID": 109636
      },
      "uniquefyingPropertyKeys": [],
      "allowedMutationTypes": [
        "DELETE",
        "EXTEND",
        "CHANGEBRANCH",
        "CHANGELINK",
        "ADDLINK",
        "DELETELINK",
        "DELETECHAIN"
      ],
      "vertexType": "MolecularFragment"
    },
    {
      "lstAPs": [
        {
          "id": 180729,
          "atomPositionNumber": 0,
          "atomPositionNumberInMol": -1,
          "apClass": {
            "rule": "ATminus",
            "subClass": 0,
            "bndTyp": "ANY"
          },
          "dirVec": {
            "x": 0.0109,
            "y": -0.0071,
            "z": 0.0026
          }
        }
      ],
      "lstSymAPs": [],
      "mol": {
        "atoms": [
          {
            "elSymbol": "ATM",
            "p3d": {
              "x": -0.0096,
              "y": 0.0045,
              "z": -0.0011
            }
          }
        ],
        "bonds": []
      },
      "vertexId": 109905,
      "buildingBlockId": 79,
      "buildingBlockType": "FRAGMENT",
      "isRCV": true,
      "properties": {
        "ATTACHMENT_POINTS": "1#ATminus:0:ANY:0.0109%-0.0071%0.0026 ",
        "OLDVERTEXID": 109634
      },
      "uniquefyingPropertyKeys": [],
      "allowedMutationTypes": [
        "DELETE",
        "EXTEND",
        "CHANGEBRANCH",
        "CHANGELINK",
        "ADDLINK",
        "DELETELINK",
        "DELETECHAIN"
      ],
      "vertexType": "MolecularFragment"
    }
  ],
  "gEdges": [
    {
      "srcAPID": 180710,
      "trgAPID": 180712,
      "bondType": "SINGLE"
    },
    {
      "srcAPID": 180713,
      "trgAPID": 180716,
      "bondType": "SINGLE"
    },
    {
      "srcAPID": 180711,
      "trgAPID": 180717,
      "bondType": "SINGLE"
    },
    {
      "srcAPID": 180715,
      "trgAPID": 180718,
      "bondType": "SINGLE"
    },
    {
      "srcAPID": 180708,
      "trgAPID": 180719,
      "bondType": "SINGLE"
    },
    {
      "srcAPID": 180709,
      "trgAPID": 180721,
      "bondType": "SINGLE"
    },
    {
      "srcAPID": 180714,
      "trgAPID": 180723,
      "bondType": "SINGLE"
    },
    {
      "srcAPID": 180720,
      "trgAPID": 180725,
      "bondType": "SINGLE"
    },
    {
      "srcAPID": 180722,
      "trgAPID": 180727,
      "bondType": "SINGLE"
    },
    {
      "srcAPID": 180726,
      "trgAPID": 180728,
      "bondType": "SINGLE"
    },
    {
      "srcAPID": 180724,
      "trgAPID": 180729,
      "bondType": "SINGLE"
    }
  ],
  "gRings": [
    {
      "vertices": [
        109896,
        109895,
        109894,
        109900,
        109903,
        109904
      ],
      "bndTyp": "SINGLE"
    },
    {
      "vertices": [
        109897,
        109895,
        109894,
        109899,
        109902,
        109905
      ],
      "bndTyp": "SINGLE"
    }
  ],
  "symVertices": [
    {
      "symIds": [
        109896,
        109897
      ]
    },
    {
      "symIds": [
        109899,
        109900
      ]
    },
    {
      "symIds": [
        109898,
        109901
      ]
    },
    {
      "symIds": [
        109902,
        109903
      ]
    },
    {
      "symIds": [
        109904,
        109905
      ]
    }
  ]
}

> <SMILES>
[Pt]12(C#O)[C]3N(C(C(N3C4(C(C(C(C(C4([H])[H])([H])[H])([H])[H])([H])[H])([H])S1)[H])([H])[H])([H])[H])C5(C(C(C(C(C5([H])[H])([H])[H])([H])[H])([H])[H])([H])S2)[H]

$$$$
