M20002070
  CDK     05042206403D

 38 42  0  0  0  0  0  0  0  0999 V2000
   -0.0087    0.0129    1.7779 Pt  0  0  0  0  0  0  0  0  0  0  0  0
   -0.0184    0.0264    3.7132 C   0  0  0  0  0  0  0  0  0  0  0  0
   -0.0242    0.0341    4.8572 O   0  0  0  0  0  0  0  0  0  0  0  0
    0.0013   -0.0014   -0.2235 C   0  0  0  0  0  0  0  0  0  0  0  0
   -0.7629    0.7958   -1.0687 N   0  0  1  0  0  0  0  0  0  0  0  0
   -0.4622    0.4829   -2.4206 C   0  0  0  0  0  0  0  0  0  0  0  0
    0.4867   -0.5175   -2.4086 C   0  0  0  0  0  0  0  0  0  0  0  0
    0.7739   -0.8108   -1.0493 N   0  0  1  0  0  0  0  0  0  0  0  0
    0.9741   -1.0219   -3.2259 H   0  0  0  0  0  0  0  0  0  0  0  0
   -0.9414    0.9753   -3.2500 H   0  0  0  0  0  0  0  0  0  0  0  0
    2.0203    0.0396    2.0540 O   0  0  0  0  0  0  0  0  0  0  0  0
    2.8301   -0.0688    0.9252 C   0  0  0  0  0  0  0  0  0  0  0  0
    2.7236   -1.4600    0.3267 C   0  0  0  0  0  0  0  0  0  0  0  0
    3.6263   -2.4597    0.7221 C   0  0  0  0  0  0  0  0  0  0  0  0
    3.5556   -3.7447    0.1828 C   0  0  0  0  0  0  0  0  0  0  0  0
    2.5716   -4.0599   -0.7628 C   0  0  0  0  0  0  0  0  0  0  0  0
    1.6523   -3.0920   -1.1645 C   0  0  0  0  0  0  0  0  0  0  0  0
    1.7335   -1.8005   -0.6135 C   0  0  0  0  0  0  0  0  0  0  0  0
    2.5660    0.7187    0.1915 H   0  0  0  0  0  0  0  0  0  0  0  0
    3.8590    0.1317    1.2981 H   0  0  0  0  0  0  0  0  0  0  0  0
    4.3854   -2.2245    1.4715 H   0  0  0  0  0  0  0  0  0  0  0  0
    4.2648   -4.5083    0.5028 H   0  0  0  0  0  0  0  0  0  0  0  0
    2.5176   -5.0656   -1.1792 H   0  0  0  0  0  0  0  0  0  0  0  0
    0.8722   -3.3399   -1.8829 H   0  0  0  0  0  0  0  0  0  0  0  0
   -2.0405   -0.0098    2.0339 O   0  0  0  0  0  0  0  0  0  0  0  0
   -2.8388    0.0821    0.8956 C   0  0  0  0  0  0  0  0  0  0  0  0
   -2.7265    1.4645    0.2780 C   0  0  0  0  0  0  0  0  0  0  0  0
   -3.6333    2.4695    0.6497 C   0  0  0  0  0  0  0  0  0  0  0  0
   -3.5575    3.7465    0.0924 C   0  0  0  0  0  0  0  0  0  0  0  0
   -2.5640    4.0482   -0.8478 C   0  0  0  0  0  0  0  0  0  0  0  0
   -1.6406    3.0749   -1.2259 C   0  0  0  0  0  0  0  0  0  0  0  0
   -1.7270    1.7916   -0.6569 C   0  0  0  0  0  0  0  0  0  0  0  0
   -2.5674   -0.7159    0.1761 H   0  0  0  0  0  0  0  0  0  0  0  0
   -3.8714   -0.1132    1.2610 H   0  0  0  0  0  0  0  0  0  0  0  0
   -4.3998    2.2451    1.3948 H   0  0  0  0  0  0  0  0  0  0  0  0
   -4.2700    4.5144    0.3939 H   0  0  0  0  0  0  0  0  0  0  0  0
   -2.5061    5.0477   -1.2782 H   0  0  0  0  0  0  0  0  0  0  0  0
   -0.8532    3.3125   -1.9400 H   0  0  0  0  0  0  0  0  0  0  0  0
  2  3  3  0  0  0  0
  1  2  1  0  0  0  0
  5  4  1  0  0  0  0
  6  5  1  0  0  0  0
  7  6  2  0  0  0  0
  7  8  1  0  0  0  0
  8  4  1  0  0  0  0
  1  4  1  0  0  0  0
  7  9  1  0  0  0  0
  6 10  1  0  0  0  0
  1 11  1  0  0  0  0
 12 13  1  0  0  0  0
 13 14  1  0  0  0  0
 14 15  2  0  0  0  0
 15 16  1  0  0  0  0
 16 17  2  0  0  0  0
 17 18  1  0  0  0  0
 13 18  2  0  0  0  0
 12 19  1  0  0  0  0
 12 20  1  0  0  0  0
 14 21  1  0  0  0  0
 15 22  1  0  0  0  0
 16 23  1  0  0  0  0
 17 24  1  0  0  0  0
 11 12  1  0  0  0  0
  1 25  1  0  0  0  0
 26 27  1  0  0  0  0
 27 28  1  0  0  0  0
 28 29  2  0  0  0  0
 29 30  1  0  0  0  0
 30 31  2  0  0  0  0
 31 32  1  0  0  0  0
 27 32  2  0  0  0  0
 26 33  1  0  0  0  0
 26 34  1  0  0  0  0
 28 35  1  0  0  0  0
 29 36  1  0  0  0  0
 30 37  1  0  0  0  0
 31 38  1  0  0  0  0
 25 26  1  0  0  0  0
  8 18  1  0  0  0  0
  5 32  1  0  0  0  0
M  END
> <PM6_ENERGY>
98.616

> <UID>
FXDUSGHZXBQSKW-PEIOYTCYNA-N

> <FITNESS>
1.14404

> <GCODE>
6042

> <GraphENC>
6042 282613_1_0,282614_63_1,282615_79_1,282616_79_1,282617_1_2,282618_1_2,282619_73_1,282620_73_1,282621_68_1,282622_68_1,282623_80_1,282624_80_1, 282613_2_282614_0_SINGLE_scaff:0_MImidazolylidene:1,282614_1_282615_0_SINGLE_LImidazolylideneSubNL:0_ATplus:0,282614_4_282616_0_SINGLE_LImidazolylideneSubNL:0_ATplus:0,282614_3_282617_0_SINGLE_LImidazolylideneSubCS:0_hyd:1,282614_2_282618_0_SINGLE_LImidazolylideneSubCS:0_hyd:1,282613_1_282619_0_SINGLE_Xlig:0_Xlig:1,282613_0_282620_0_SINGLE_Xlig:0_Xlig:1,282619_1_282621_0_SINGLE_bridge:1_bridge:0,282620_1_282622_0_SINGLE_bridge:1_bridge:0,282621_1_282623_0_SINGLE_bridge:0_ATminus:0,282622_1_282624_0_SINGLE_bridge:0_ATminus:0, DENOPTIMRing [vertices=[282616_79_1, 282614_63_1, 282613_1_0, 282619_73_1, 282621_68_1, 282623_80_1]] DENOPTIMRing [vertices=[282615_79_1, 282614_63_1, 282613_1_0, 282620_73_1, 282622_68_1, 282624_80_1]] SymmetricSet [symIds=[282615, 282616]] SymmetricSet [symIds=[282619, 282620]] SymmetricSet [symIds=[282617, 282618]] SymmetricSet [symIds=[282621, 282622]] SymmetricSet [symIds=[282623, 282624]] 

> <GraphJson>
{
  "graphId": 6042,
  "gVertices": [
    {
      "lstAPs": [
        {
          "id": 471378,
          "atomPositionNumber": 0,
          "atomPositionNumberInMol": -1,
          "apClass": {
            "rule": "Xlig",
            "subClass": 0,
            "bndTyp": "SINGLE"
          },
          "dirVec": {
            "x": -2.3339,
            "y": -0.0087,
            "z": 0.8172
          }
        },
        {
          "id": 471379,
          "atomPositionNumber": 0,
          "atomPositionNumberInMol": -1,
          "apClass": {
            "rule": "Xlig",
            "subClass": 0,
            "bndTyp": "SINGLE"
          },
          "dirVec": {
            "x": 2.336,
            "y": -5.0E-4,
            "z": 0.829
          }
        },
        {
          "id": 471380,
          "atomPositionNumber": 0,
          "atomPositionNumberInMol": -1,
          "apClass": {
            "rule": "scaff",
            "subClass": 0,
            "bndTyp": "SINGLE"
          },
          "dirVec": {
            "x": -0.0095,
            "y": 0.0046,
            "z": -1.7113
          }
        }
      ],
      "lstSymAPs": [
        {
          "symIds": [
            0,
            1
          ]
        }
      ],
      "mol": {
        "atoms": [
          {
            "elSymbol": "Pt",
            "p3d": {
              "x": -0.0098,
              "y": 0.0049,
              "z": 0.6289
            }
          },
          {
            "elSymbol": "C",
            "p3d": {
              "x": -6.0E-4,
              "y": 0.0016,
              "z": 2.5609
            }
          },
          {
            "elSymbol": "O",
            "p3d": {
              "x": 0.0025,
              "y": -0.0041,
              "z": 3.6974
            }
          },
          {
            "elSymbol": "Du",
            "p3d": {
              "x": -0.007,
              "y": 1.0013,
              "z": 0.6372
            }
          },
          {
            "elSymbol": "Du",
            "p3d": {
              "x": -0.0014,
              "y": 0.9902,
              "z": 2.5698
            }
          }
        ],
        "bonds": [
          {
            "atomIds": [
              1,
              2
            ],
            "bo": "TRIPLE"
          },
          {
            "atomIds": [
              0,
              1
            ],
            "bo": "SINGLE"
          },
          {
            "atomIds": [
              3,
              0
            ],
            "bo": "SINGLE"
          },
          {
            "atomIds": [
              4,
              1
            ],
            "bo": "SINGLE"
          }
        ]
      },
      "vertexId": 282613,
      "buildingBlockId": 0,
      "buildingBlockType": "SCAFFOLD",
      "isRCV": false,
      "properties": {
        "ATTACHMENT_POINTS": "1#Xlig:0:SINGLE:-2.3339%-0.0087%0.8172,Xlig:0:SINGLE:2.3360%-0.0005%0.8290,scaff:0:SINGLE:-0.0095%0.0046%-1.7113 ",
        "OLDVERTEXID": 153
      },
      "uniquefyingPropertyKeys": [],
      "allowedMutationTypes": [
        "DELETE",
        "EXTEND",
        "CHANGEBRANCH",
        "CHANGELINK",
        "ADDLINK",
        "DELETELINK",
        "DELETECHAIN"
      ],
      "vertexType": "MolecularFragment"
    },
    {
      "lstAPs": [
        {
          "id": 471381,
          "atomPositionNumber": 0,
          "atomPositionNumberInMol": -1,
          "apClass": {
            "rule": "MImidazolylidene",
            "subClass": 1,
            "bndTyp": "SINGLE"
          },
          "dirVec": {
            "x": -0.009793238118654938,
            "y": 0.004893238118654934,
            "z": 0.5761528175852433
          }
        },
        {
          "id": 471382,
          "atomPositionNumber": 1,
          "atomPositionNumberInMol": -1,
          "apClass": {
            "rule": "LImidazolylideneSubNL",
            "subClass": 0,
            "bndTyp": "SINGLE"
          },
          "dirVec": {
            "x": 2.1385376400018083,
            "y": -1.2920820938118114,
            "z": -2.0126980407065247
          }
        },
        {
          "id": 471383,
          "atomPositionNumber": 2,
          "atomPositionNumberInMol": -1,
          "apClass": {
            "rule": "LImidazolylideneSubCS",
            "subClass": 0,
            "bndTyp": "SINGLE"
          },
          "dirVec": {
            "x": 1.3448401215438701,
            "y": -0.9033181604791201,
            "z": -5.017679279139372
          }
        },
        {
          "id": 471384,
          "atomPositionNumber": 3,
          "atomPositionNumberInMol": -1,
          "apClass": {
            "rule": "LImidazolylideneSubCS",
            "subClass": 0,
            "bndTyp": "SINGLE"
          },
          "dirVec": {
            "x": -1.3477185878361413,
            "y": 0.8507747291978388,
            "z": -5.018441464543981
          }
        },
        {
          "id": 471385,
          "atomPositionNumber": 4,
          "atomPositionNumberInMol": -1,
          "apClass": {
            "rule": "LImidazolylideneSubNL",
            "subClass": 0,
            "bndTyp": "SINGLE"
          },
          "dirVec": {
            "x": -2.1480918912368194,
            "y": 1.2671530428764126,
            "z": -2.019672067757746
          }
        }
      ],
      "lstSymAPs": [
        {
          "symIds": [
            1,
            4
          ]
        },
        {
          "symIds": [
            2,
            3
          ]
        }
      ],
      "mol": {
        "atoms": [
          {
            "elSymbol": "C",
            "p3d": {
              "x": -0.009506761881345062,
              "y": 0.0046067618813450655,
              "z": -1.6585528175852433
            }
          },
          {
            "elSymbol": "N",
            "p3d": {
              "x": 0.9210219066924671,
              "y": -0.5768763137558393,
              "z": -2.4913283273775098
            }
          },
          {
            "elSymbol": "C",
            "p3d": {
              "x": 0.5808767650721197,
              "y": -0.37444584415157073,
              "z": -3.8247559735615355
            }
          },
          {
            "elSymbol": "C",
            "p3d": {
              "x": -0.5846862974820531,
              "y": 0.3294560187596806,
              "z": -3.824482844647925
            }
          },
          {
            "elSymbol": "N",
            "p3d": {
              "x": -0.9434229167071055,
              "y": 0.5572297196054272,
              "z": -2.48469390260145
            }
          }
        ],
        "bonds": [
          {
            "atomIds": [
              1,
              0
            ],
            "bo": "SINGLE"
          },
          {
            "atomIds": [
              2,
              1
            ],
            "bo": "SINGLE"
          },
          {
            "atomIds": [
              3,
              2
            ],
            "bo": "DOUBLE"
          },
          {
            "atomIds": [
              3,
              4
            ],
            "bo": "SINGLE"
          },
          {
            "atomIds": [
              4,
              0
            ],
            "bo": "SINGLE"
          }
        ]
      },
      "vertexId": 282614,
      "buildingBlockId": 62,
      "buildingBlockType": "FRAGMENT",
      "isRCV": false,
      "properties": {
        "ATTACHMENT_POINTS": "1#MImidazolylidene:1:SINGLE:-0.0098%0.0049%0.5762 2#LImidazolylideneSubNL:0:SINGLE:2.1385%-1.2921%-2.0127 3#LImidazolylideneSubCS:0:SINGLE:1.3448%-0.9033%-5.0177 4#LImidazolylideneSubCS:0:SINGLE:-1.3477%0.8508%-5.0184 5#LImidazolylideneSubNL:0:SINGLE:-2.1481%1.2672%-2.0197 ",
        "OLDVERTEXID": 154
      },
      "uniquefyingPropertyKeys": [],
      "allowedMutationTypes": [
        "DELETE",
        "EXTEND",
        "CHANGEBRANCH",
        "CHANGELINK",
        "ADDLINK",
        "DELETELINK",
        "DELETECHAIN"
      ],
      "vertexType": "MolecularFragment"
    },
    {
      "lstAPs": [
        {
          "id": 471386,
          "atomPositionNumber": 0,
          "atomPositionNumberInMol": -1,
          "apClass": {
            "rule": "ATplus",
            "subClass": 0,
            "bndTyp": "ANY"
          },
          "dirVec": {
            "x": 2.1385376400018083,
            "y": -1.2920820938118114,
            "z": -2.0126980407065247
          }
        }
      ],
      "lstSymAPs": [],
      "mol": {
        "atoms": [
          {
            "elSymbol": "ATP",
            "p3d": {
              "x": 2.155679833678634,
              "y": -1.3021519398639685,
              "z": -2.0059590944660464
            }
          }
        ],
        "bonds": []
      },
      "vertexId": 282615,
      "buildingBlockId": 78,
      "buildingBlockType": "FRAGMENT",
      "isRCV": true,
      "properties": {
        "ATTACHMENT_POINTS": "1#ATplus:0:ANY:2.1385%-1.2921%-2.0127 ",
        "OLDVERTEXID": 155
      },
      "uniquefyingPropertyKeys": [],
      "allowedMutationTypes": [
        "DELETE",
        "EXTEND",
        "CHANGEBRANCH",
        "CHANGELINK",
        "ADDLINK",
        "DELETELINK",
        "DELETECHAIN"
      ],
      "vertexType": "MolecularFragment"
    },
    {
      "lstAPs": [
        {
          "id": 471387,
          "atomPositionNumber": 0,
          "atomPositionNumberInMol": -1,
          "apClass": {
            "rule": "ATplus",
            "subClass": 0,
            "bndTyp": "ANY"
          },
          "dirVec": {
            "x": -2.1480918912368194,
            "y": 1.2671530428764126,
            "z": -2.019672067757746
          }
        }
      ],
      "lstSymAPs": [],
      "mol": {
        "atoms": [
          {
            "elSymbol": "ATP",
            "p3d": {
              "x": -2.1652531118529774,
              "y": 1.2772663196593277,
              "z": -2.0130475572342648
            }
          }
        ],
        "bonds": []
      },
      "vertexId": 282616,
      "buildingBlockId": 78,
      "buildingBlockType": "FRAGMENT",
      "isRCV": true,
      "properties": {
        "ATTACHMENT_POINTS": "1#ATplus:0:ANY:-2.1481%1.2672%-2.0197 ",
        "OLDVERTEXID": 156
      },
      "uniquefyingPropertyKeys": [],
      "allowedMutationTypes": [
        "DELETE",
        "EXTEND",
        "CHANGEBRANCH",
        "CHANGELINK",
        "ADDLINK",
        "DELETELINK",
        "DELETECHAIN"
      ],
      "vertexType": "MolecularFragment"
    },
    {
      "lstAPs": [
        {
          "id": 471388,
          "atomPositionNumber": 0,
          "atomPositionNumberInMol": -1,
          "apClass": {
            "rule": "hyd",
            "subClass": 1,
            "bndTyp": "SINGLE"
          },
          "dirVec": {
            "x": 0.4589,
            "y": -1.751,
            "z": 0.3869
          }
        }
      ],
      "lstSymAPs": [],
      "mol": {
        "atoms": [
          {
            "elSymbol": "H",
            "p3d": {
              "x": 0.1925,
              "y": -2.5024,
              "z": 1.1483
            }
          }
        ],
        "bonds": []
      },
      "vertexId": 282617,
      "buildingBlockId": 0,
      "buildingBlockType": "CAP",
      "isRCV": false,
      "properties": {
        "ATTACHMENT_POINTS": "1#hyd:1:SINGLE:0.4589%-1.7510%0.3869 ",
        "OLDVERTEXID": 1318
      },
      "uniquefyingPropertyKeys": [],
      "allowedMutationTypes": [
        "DELETE",
        "EXTEND",
        "CHANGEBRANCH",
        "CHANGELINK",
        "ADDLINK",
        "DELETELINK",
        "DELETECHAIN"
      ],
      "vertexType": "MolecularFragment"
    },
    {
      "lstAPs": [
        {
          "id": 471389,
          "atomPositionNumber": 0,
          "atomPositionNumberInMol": -1,
          "apClass": {
            "rule": "hyd",
            "subClass": 1,
            "bndTyp": "SINGLE"
          },
          "dirVec": {
            "x": 0.4589,
            "y": -1.751,
            "z": 0.3869
          }
        }
      ],
      "lstSymAPs": [],
      "mol": {
        "atoms": [
          {
            "elSymbol": "H",
            "p3d": {
              "x": 0.1925,
              "y": -2.5024,
              "z": 1.1483
            }
          }
        ],
        "bonds": []
      },
      "vertexId": 282618,
      "buildingBlockId": 0,
      "buildingBlockType": "CAP",
      "isRCV": false,
      "properties": {
        "ATTACHMENT_POINTS": "1#hyd:1:SINGLE:0.4589%-1.7510%0.3869 ",
        "OLDVERTEXID": 1317
      },
      "uniquefyingPropertyKeys": [],
      "allowedMutationTypes": [
        "DELETE",
        "EXTEND",
        "CHANGEBRANCH",
        "CHANGELINK",
        "ADDLINK",
        "DELETELINK",
        "DELETECHAIN"
      ],
      "vertexType": "MolecularFragment"
    },
    {
      "lstAPs": [
        {
          "id": 471390,
          "atomPositionNumber": 0,
          "atomPositionNumberInMol": -1,
          "apClass": {
            "rule": "Xlig",
            "subClass": 1,
            "bndTyp": "SINGLE"
          },
          "dirVec": {
            "x": -0.1753,
            "y": 0.0948,
            "z": -0.4464
          }
        },
        {
          "id": 471391,
          "atomPositionNumber": 0,
          "atomPositionNumberInMol": -1,
          "apClass": {
            "rule": "bridge",
            "subClass": 1,
            "bndTyp": "SINGLE"
          },
          "dirVec": {
            "x": -0.5345,
            "y": 2.7646,
            "z": 0.48009999999999997
          }
        }
      ],
      "lstSymAPs": [],
      "mol": {
        "atoms": [
          {
            "elSymbol": "O",
            "p3d": {
              "x": -0.3534,
              "y": 2.1044,
              "z": -0.7339
            }
          }
        ],
        "bonds": []
      },
      "vertexId": 282619,
      "buildingBlockId": 72,
      "buildingBlockType": "FRAGMENT",
      "isRCV": false,
      "properties": {
        "ATTACHMENT_POINTS": "1#Xlig:1:SINGLE:-0.1753%0.0948%-0.4464,bridge:1:SINGLE:-0.5345%2.7646%0.4801 ",
        "OLDVERTEXID": 1319
      },
      "uniquefyingPropertyKeys": [],
      "allowedMutationTypes": [
        "DELETE",
        "EXTEND",
        "CHANGEBRANCH",
        "CHANGELINK",
        "ADDLINK",
        "DELETELINK",
        "DELETECHAIN"
      ],
      "vertexType": "MolecularFragment"
    },
    {
      "lstAPs": [
        {
          "id": 471392,
          "atomPositionNumber": 0,
          "atomPositionNumberInMol": -1,
          "apClass": {
            "rule": "Xlig",
            "subClass": 1,
            "bndTyp": "SINGLE"
          },
          "dirVec": {
            "x": -0.1753,
            "y": 0.0948,
            "z": -0.4464
          }
        },
        {
          "id": 471393,
          "atomPositionNumber": 0,
          "atomPositionNumberInMol": -1,
          "apClass": {
            "rule": "bridge",
            "subClass": 1,
            "bndTyp": "SINGLE"
          },
          "dirVec": {
            "x": -0.5345,
            "y": 2.7646,
            "z": 0.48009999999999997
          }
        }
      ],
      "lstSymAPs": [],
      "mol": {
        "atoms": [
          {
            "elSymbol": "O",
            "p3d": {
              "x": -0.3534,
              "y": 2.1044,
              "z": -0.7339
            }
          }
        ],
        "bonds": []
      },
      "vertexId": 282620,
      "buildingBlockId": 72,
      "buildingBlockType": "FRAGMENT",
      "isRCV": false,
      "properties": {
        "ATTACHMENT_POINTS": "1#Xlig:1:SINGLE:-0.1753%0.0948%-0.4464,bridge:1:SINGLE:-0.5345%2.7646%0.4801 ",
        "OLDVERTEXID": 1309
      },
      "uniquefyingPropertyKeys": [],
      "allowedMutationTypes": [
        "DELETE",
        "EXTEND",
        "CHANGEBRANCH",
        "CHANGELINK",
        "ADDLINK",
        "DELETELINK",
        "DELETECHAIN"
      ],
      "vertexType": "MolecularFragment"
    },
    {
      "lstAPs": [
        {
          "id": 471394,
          "atomPositionNumber": 0,
          "atomPositionNumberInMol": -1,
          "apClass": {
            "rule": "bridge",
            "subClass": 0,
            "bndTyp": "SINGLE"
          },
          "dirVec": {
            "x": -2.5958,
            "y": -0.6501,
            "z": -0.7558
          }
        },
        {
          "id": 471395,
          "atomPositionNumber": 6,
          "atomPositionNumberInMol": -1,
          "apClass": {
            "rule": "bridge",
            "subClass": 0,
            "bndTyp": "SINGLE"
          },
          "dirVec": {
            "x": -0.8149,
            "y": 2.0931,
            "z": 0.1475
          }
        }
      ],
      "lstSymAPs": [],
      "mol": {
        "atoms": [
          {
            "elSymbol": "C",
            "p3d": {
              "x": -1.8258,
              "y": -0.5811,
              "z": 0.5645
            }
          },
          {
            "elSymbol": "C",
            "p3d": {
              "x": -0.3615,
              "y": -0.3647,
              "z": 0.2814
            }
          },
          {
            "elSymbol": "C",
            "p3d": {
              "x": 0.4975,
              "y": -1.4461,
              "z": 0.2179
            }
          },
          {
            "elSymbol": "C",
            "p3d": {
              "x": 1.8404,
              "y": -1.2477,
              "z": -0.0418
            }
          },
          {
            "elSymbol": "C",
            "p3d": {
              "x": 2.3248,
              "y": 0.0323,
              "z": -0.2386
            }
          },
          {
            "elSymbol": "C",
            "p3d": {
              "x": 1.4658,
              "y": 1.1133,
              "z": -0.1761
            }
          },
          {
            "elSymbol": "C",
            "p3d": {
              "x": 0.1217,
              "y": 0.9144,
              "z": 0.0794
            }
          },
          {
            "elSymbol": "H",
            "p3d": {
              "x": -2.206,
              "y": 0.246,
              "z": 1.164
            }
          },
          {
            "elSymbol": "H",
            "p3d": {
              "x": -1.956,
              "y": -1.5155,
              "z": 1.1104
            }
          },
          {
            "elSymbol": "H",
            "p3d": {
              "x": 0.1192,
              "y": -2.446,
              "z": 0.3716
            }
          },
          {
            "elSymbol": "H",
            "p3d": {
              "x": 2.5116,
              "y": -2.0924,
              "z": -0.0906
            }
          },
          {
            "elSymbol": "H",
            "p3d": {
              "x": 3.3743,
              "y": 0.1874,
              "z": -0.4409
            }
          },
          {
            "elSymbol": "H",
            "p3d": {
              "x": 1.8441,
              "y": 2.1132,
              "z": -0.3295
            }
          }
        ],
        "bonds": [
          {
            "atomIds": [
              0,
              1
            ],
            "bo": "SINGLE"
          },
          {
            "atomIds": [
              1,
              2
            ],
            "bo": "SINGLE"
          },
          {
            "atomIds": [
              2,
              3
            ],
            "bo": "DOUBLE"
          },
          {
            "atomIds": [
              3,
              4
            ],
            "bo": "SINGLE"
          },
          {
            "atomIds": [
              4,
              5
            ],
            "bo": "DOUBLE"
          },
          {
            "atomIds": [
              5,
              6
            ],
            "bo": "SINGLE"
          },
          {
            "atomIds": [
              1,
              6
            ],
            "bo": "DOUBLE"
          },
          {
            "atomIds": [
              0,
              7
            ],
            "bo": "SINGLE"
          },
          {
            "atomIds": [
              0,
              8
            ],
            "bo": "SINGLE"
          },
          {
            "atomIds": [
              2,
              9
            ],
            "bo": "SINGLE"
          },
          {
            "atomIds": [
              3,
              10
            ],
            "bo": "SINGLE"
          },
          {
            "atomIds": [
              4,
              11
            ],
            "bo": "SINGLE"
          },
          {
            "atomIds": [
              5,
              12
            ],
            "bo": "SINGLE"
          }
        ]
      },
      "vertexId": 282621,
      "buildingBlockId": 67,
      "buildingBlockType": "FRAGMENT",
      "isRCV": false,
      "properties": {
        "ATTACHMENT_POINTS": "1#bridge:0:SINGLE:-2.5958%-0.6501%-0.7558 7#bridge:0:SINGLE:-0.8149%2.0931%0.1475 ",
        "OLDVERTEXID": 31466
      },
      "uniquefyingPropertyKeys": [],
      "allowedMutationTypes": [
        "DELETE",
        "EXTEND",
        "CHANGEBRANCH",
        "CHANGELINK",
        "ADDLINK",
        "DELETELINK",
        "DELETECHAIN"
      ],
      "vertexType": "MolecularFragment"
    },
    {
      "lstAPs": [
        {
          "id": 471396,
          "atomPositionNumber": 0,
          "atomPositionNumberInMol": -1,
          "apClass": {
            "rule": "bridge",
            "subClass": 0,
            "bndTyp": "SINGLE"
          },
          "dirVec": {
            "x": -2.5958,
            "y": -0.6501,
            "z": -0.7558
          }
        },
        {
          "id": 471397,
          "atomPositionNumber": 6,
          "atomPositionNumberInMol": -1,
          "apClass": {
            "rule": "bridge",
            "subClass": 0,
            "bndTyp": "SINGLE"
          },
          "dirVec": {
            "x": -0.8149,
            "y": 2.0931,
            "z": 0.1475
          }
        }
      ],
      "lstSymAPs": [],
      "mol": {
        "atoms": [
          {
            "elSymbol": "C",
            "p3d": {
              "x": -1.8258,
              "y": -0.5811,
              "z": 0.5645
            }
          },
          {
            "elSymbol": "C",
            "p3d": {
              "x": -0.3615,
              "y": -0.3647,
              "z": 0.2814
            }
          },
          {
            "elSymbol": "C",
            "p3d": {
              "x": 0.4975,
              "y": -1.4461,
              "z": 0.2179
            }
          },
          {
            "elSymbol": "C",
            "p3d": {
              "x": 1.8404,
              "y": -1.2477,
              "z": -0.0418
            }
          },
          {
            "elSymbol": "C",
            "p3d": {
              "x": 2.3248,
              "y": 0.0323,
              "z": -0.2386
            }
          },
          {
            "elSymbol": "C",
            "p3d": {
              "x": 1.4658,
              "y": 1.1133,
              "z": -0.1761
            }
          },
          {
            "elSymbol": "C",
            "p3d": {
              "x": 0.1217,
              "y": 0.9144,
              "z": 0.0794
            }
          },
          {
            "elSymbol": "H",
            "p3d": {
              "x": -2.206,
              "y": 0.246,
              "z": 1.164
            }
          },
          {
            "elSymbol": "H",
            "p3d": {
              "x": -1.956,
              "y": -1.5155,
              "z": 1.1104
            }
          },
          {
            "elSymbol": "H",
            "p3d": {
              "x": 0.1192,
              "y": -2.446,
              "z": 0.3716
            }
          },
          {
            "elSymbol": "H",
            "p3d": {
              "x": 2.5116,
              "y": -2.0924,
              "z": -0.0906
            }
          },
          {
            "elSymbol": "H",
            "p3d": {
              "x": 3.3743,
              "y": 0.1874,
              "z": -0.4409
            }
          },
          {
            "elSymbol": "H",
            "p3d": {
              "x": 1.8441,
              "y": 2.1132,
              "z": -0.3295
            }
          }
        ],
        "bonds": [
          {
            "atomIds": [
              0,
              1
            ],
            "bo": "SINGLE"
          },
          {
            "atomIds": [
              1,
              2
            ],
            "bo": "SINGLE"
          },
          {
            "atomIds": [
              2,
              3
            ],
            "bo": "DOUBLE"
          },
          {
            "atomIds": [
              3,
              4
            ],
            "bo": "SINGLE"
          },
          {
            "atomIds": [
              4,
              5
            ],
            "bo": "DOUBLE"
          },
          {
            "atomIds": [
              5,
              6
            ],
            "bo": "SINGLE"
          },
          {
            "atomIds": [
              1,
              6
            ],
            "bo": "DOUBLE"
          },
          {
            "atomIds": [
              0,
              7
            ],
            "bo": "SINGLE"
          },
          {
            "atomIds": [
              0,
              8
            ],
            "bo": "SINGLE"
          },
          {
            "atomIds": [
              2,
              9
            ],
            "bo": "SINGLE"
          },
          {
            "atomIds": [
              3,
              10
            ],
            "bo": "SINGLE"
          },
          {
            "atomIds": [
              4,
              11
            ],
            "bo": "SINGLE"
          },
          {
            "atomIds": [
              5,
              12
            ],
            "bo": "SINGLE"
          }
        ]
      },
      "vertexId": 282622,
      "buildingBlockId": 67,
      "buildingBlockType": "FRAGMENT",
      "isRCV": false,
      "properties": {
        "ATTACHMENT_POINTS": "1#bridge:0:SINGLE:-2.5958%-0.6501%-0.7558 7#bridge:0:SINGLE:-0.8149%2.0931%0.1475 ",
        "OLDVERTEXID": 31574
      },
      "uniquefyingPropertyKeys": [],
      "allowedMutationTypes": [
        "DELETE",
        "EXTEND",
        "CHANGEBRANCH",
        "CHANGELINK",
        "ADDLINK",
        "DELETELINK",
        "DELETECHAIN"
      ],
      "vertexType": "MolecularFragment"
    },
    {
      "lstAPs": [
        {
          "id": 471398,
          "atomPositionNumber": 0,
          "atomPositionNumberInMol": -1,
          "apClass": {
            "rule": "ATminus",
            "subClass": 0,
            "bndTyp": "ANY"
          },
          "dirVec": {
            "x": 0.0109,
            "y": -0.0071,
            "z": 0.0026
          }
        }
      ],
      "lstSymAPs": [],
      "mol": {
        "atoms": [
          {
            "elSymbol": "ATM",
            "p3d": {
              "x": -0.0096,
              "y": 0.0045,
              "z": -0.0011
            }
          }
        ],
        "bonds": []
      },
      "vertexId": 282623,
      "buildingBlockId": 79,
      "buildingBlockType": "FRAGMENT",
      "isRCV": true,
      "properties": {
        "ATTACHMENT_POINTS": "1#ATminus:0:ANY:0.0109%-0.0071%0.0026 ",
        "OLDVERTEXID": 282331
      },
      "uniquefyingPropertyKeys": [],
      "allowedMutationTypes": [
        "DELETE",
        "EXTEND",
        "CHANGEBRANCH",
        "CHANGELINK",
        "ADDLINK",
        "DELETELINK",
        "DELETECHAIN"
      ],
      "vertexType": "MolecularFragment"
    },
    {
      "lstAPs": [
        {
          "id": 471399,
          "atomPositionNumber": 0,
          "atomPositionNumberInMol": -1,
          "apClass": {
            "rule": "ATminus",
            "subClass": 0,
            "bndTyp": "ANY"
          },
          "dirVec": {
            "x": 0.0109,
            "y": -0.0071,
            "z": 0.0026
          }
        }
      ],
      "lstSymAPs": [],
      "mol": {
        "atoms": [
          {
            "elSymbol": "ATM",
            "p3d": {
              "x": -0.0096,
              "y": 0.0045,
              "z": -0.0011
            }
          }
        ],
        "bonds": []
      },
      "vertexId": 282624,
      "buildingBlockId": 79,
      "buildingBlockType": "FRAGMENT",
      "isRCV": true,
      "properties": {
        "ATTACHMENT_POINTS": "1#ATminus:0:ANY:0.0109%-0.0071%0.0026 ",
        "OLDVERTEXID": 282333
      },
      "uniquefyingPropertyKeys": [],
      "allowedMutationTypes": [
        "DELETE",
        "EXTEND",
        "CHANGEBRANCH",
        "CHANGELINK",
        "ADDLINK",
        "DELETELINK",
        "DELETECHAIN"
      ],
      "vertexType": "MolecularFragment"
    }
  ],
  "gEdges": [
    {
      "srcAPID": 471380,
      "trgAPID": 471381,
      "bondType": "SINGLE"
    },
    {
      "srcAPID": 471382,
      "trgAPID": 471386,
      "bondType": "SINGLE"
    },
    {
      "srcAPID": 471385,
      "trgAPID": 471387,
      "bondType": "SINGLE"
    },
    {
      "srcAPID": 471384,
      "trgAPID": 471388,
      "bondType": "SINGLE"
    },
    {
      "srcAPID": 471383,
      "trgAPID": 471389,
      "bondType": "SINGLE"
    },
    {
      "srcAPID": 471379,
      "trgAPID": 471390,
      "bondType": "SINGLE"
    },
    {
      "srcAPID": 471378,
      "trgAPID": 471392,
      "bondType": "SINGLE"
    },
    {
      "srcAPID": 471391,
      "trgAPID": 471394,
      "bondType": "SINGLE"
    },
    {
      "srcAPID": 471393,
      "trgAPID": 471396,
      "bondType": "SINGLE"
    },
    {
      "srcAPID": 471395,
      "trgAPID": 471398,
      "bondType": "SINGLE"
    },
    {
      "srcAPID": 471397,
      "trgAPID": 471399,
      "bondType": "SINGLE"
    }
  ],
  "gRings": [
    {
      "vertices": [
        282616,
        282614,
        282613,
        282619,
        282621,
        282623
      ],
      "bndTyp": "SINGLE"
    },
    {
      "vertices": [
        282615,
        282614,
        282613,
        282620,
        282622,
        282624
      ],
      "bndTyp": "SINGLE"
    }
  ],
  "symVertices": [
    {
      "symIds": [
        282615,
        282616
      ]
    },
    {
      "symIds": [
        282619,
        282620
      ]
    },
    {
      "symIds": [
        282617,
        282618
      ]
    },
    {
      "symIds": [
        282621,
        282622
      ]
    },
    {
      "symIds": [
        282623,
        282624
      ]
    }
  ]
}

> <SMILES>
[Pt]12(C#O)[C]3N(C(=C(N3C=4C(=C(C(=C(C4C([H])([H])O1)[H])[H])[H])[H])[H])[H])C=5C(=C(C(=C(C5C([H])([H])O2)[H])[H])[H])[H]

$$$$
