M30010922
  CDK     05072223433D

 37 38  0  0  0  0  0  0  0  0999 V2000
   -1.8231   -0.2002   -0.1624 Pt  0  0  0  0  0  0  0  0  0  0  0  0
   -3.7960   -0.1946   -0.1238 C   0  0  0  0  0  0  0  0  0  0  0  0
   -4.9351   -0.1895   -0.1035 O   0  0  0  0  0  0  0  0  0  0  0  0
    0.4455   -0.2087   -0.2511 P   0  0  0  0  0  0  0  0  0  0  0  0
    1.1819    0.7870    0.9406 N   0  0  0  0  0  0  0  0  0  0  0  0
    0.3602    1.5158    1.9335 C   0  0  0  0  0  0  0  0  0  0  0  0
    0.3505    2.6040    1.7159 H   0  0  0  0  0  0  0  0  0  0  0  0
   -0.7005    1.1883    1.9311 H   0  0  0  0  0  0  0  0  0  0  0  0
    0.7571    1.3651    2.9516 H   0  0  0  0  0  0  0  0  0  0  0  0
    2.6474    0.9527    0.9980 C   0  0  0  0  0  0  0  0  0  0  0  0
    3.1511    0.0330    1.3478 H   0  0  0  0  0  0  0  0  0  0  0  0
    3.0758    1.2525    0.0252 H   0  0  0  0  0  0  0  0  0  0  0  0
    2.9130    1.7555    1.7121 H   0  0  0  0  0  0  0  0  0  0  0  0
   -1.9349    1.8231    0.1919 O   0  0  0  0  0  0  0  0  0  0  0  0
   -1.1458    3.8020   -0.3689 O   0  0  0  0  0  0  0  0  0  0  0  0
   -1.3531    2.6539   -0.6896 C   0  0  0  0  0  0  0  0  0  0  0  0
   -1.0150    2.0564   -2.0475 C   0  0  0  0  0  0  0  0  0  0  0  0
    0.4954    1.8216   -2.1997 C   0  0  0  0  0  0  0  0  0  0  0  0
    0.9492    0.3811   -1.9686 C   0  0  0  0  0  0  0  0  0  0  0  0
   -1.6100    1.1393   -2.2575 H   0  0  0  0  0  0  0  0  0  0  0  0
   -1.3509    2.7863   -2.8191 H   0  0  0  0  0  0  0  0  0  0  0  0
    0.7920    2.1119   -3.2328 H   0  0  0  0  0  0  0  0  0  0  0  0
    1.0535    2.5298   -1.5456 H   0  0  0  0  0  0  0  0  0  0  0  0
    0.4935   -0.2943   -2.7269 H   0  0  0  0  0  0  0  0  0  0  0  0
    2.0439    0.2966   -2.1104 H   0  0  0  0  0  0  0  0  0  0  0  0
   -2.0097   -2.2049   -0.5717 O   0  0  0  0  0  0  0  0  0  0  0  0
   -1.6650   -4.3024    0.0032 O   0  0  0  0  0  0  0  0  0  0  0  0
   -1.5217   -3.1313    0.2676 C   0  0  0  0  0  0  0  0  0  0  0  0
   -0.8015   -2.5954    1.4939 C   0  0  0  0  0  0  0  0  0  0  0  0
    0.7153   -2.5538    1.2590 C   0  0  0  0  0  0  0  0  0  0  0  0
    1.1417   -1.9475   -0.0776 C   0  0  0  0  0  0  0  0  0  0  0  0
   -1.2140   -1.6121    1.8113 H   0  0  0  0  0  0  0  0  0  0  0  0
   -1.0181   -3.2756    2.3483 H   0  0  0  0  0  0  0  0  0  0  0  0
    1.2003   -2.0288    2.1099 H   0  0  0  0  0  0  0  0  0  0  0  0
    1.1053   -3.5975    1.3012 H   0  0  0  0  0  0  0  0  0  0  0  0
    2.2452   -1.9422   -0.1637 H   0  0  0  0  0  0  0  0  0  0  0  0
    0.7763   -2.5771   -0.9218 H   0  0  0  0  0  0  0  0  0  0  0  0
  2  3  3  0  0  0  0
  1  2  1  0  0  0  0
  1  4  1  0  0  0  0
  4  5  1  0  0  0  0
  6  7  1  0  0  0  0
  6  8  1  0  0  0  0
  6  9  1  0  0  0  0
  5  6  1  0  0  0  0
 10 11  1  0  0  0  0
 10 12  1  0  0  0  0
 10 13  1  0  0  0  0
  5 10  1  0  0  0  0
 15 16  2  0  0  0  0
 16 14  1  0  0  0  0
  1 14  1  0  0  0  0
 17 18  1  0  0  0  0
 18 19  1  0  0  0  0
 17 20  1  0  0  0  0
 17 21  1  0  0  0  0
 18 22  1  0  0  0  0
 18 23  1  0  0  0  0
 19 24  1  0  0  0  0
 19 25  1  0  0  0  0
 16 17  1  0  0  0  0
 27 28  2  0  0  0  0
 28 26  1  0  0  0  0
  1 26  1  0  0  0  0
 29 30  1  0  0  0  0
 30 31  1  0  0  0  0
 29 32  1  0  0  0  0
 29 33  1  0  0  0  0
 30 34  1  0  0  0  0
 30 35  1  0  0  0  0
 31 36  1  0  0  0  0
 31 37  1  0  0  0  0
 28 29  1  0  0  0  0
  4 31  1  0  0  0  0
  4 19  1  0  0  0  0
M  END
> <PM6_ENERGY>
-852.163

> <UID>
YBSHARSSNLEFCS-HQAQWKRUNA-L

> <FITNESS>
1.13929

> <GCODE>
37940

> <GraphENC>
37940 1641792_1_0,1641793_4_1,1641794_79_1,1641795_79_1,1641796_76_1,1641797_6_1,1641798_76_1,1641799_65_1,1641800_65_1,1641801_24_1,1641802_24_1,1641803_80_1,1641804_80_1, 1641792_2_1641793_3_SINGLE_scaff:0_MMonoAminoPhosphine:1,1641793_1_1641794_0_SINGLE_LMonoAminoPhosphineSubR:0_ATplus:0,1641793_2_1641795_0_SINGLE_LMonoAminoPhosphineSubR:0_ATplus:0,1641792_0_1641796_0_SINGLE_Xlig:0_Xlig:1,1641793_0_1641797_0_SINGLE_LMonoAminoPhosphineN:0_LAminoPhosphineN:1,1641792_1_1641798_0_SINGLE_Xlig:0_Xlig:1,1641796_1_1641799_0_SINGLE_bridge:1_bridge:0,1641798_1_1641800_0_SINGLE_bridge:1_bridge:0,1641797_2_1641801_0_SINGLE_AminoPhosphineSubN:0_SubRS:1,1641797_1_1641802_0_SINGLE_AminoPhosphineSubN:0_SubRS:1,1641800_1_1641803_0_SINGLE_bridge:0_ATminus:0,1641799_1_1641804_0_SINGLE_bridge:0_ATminus:0, DENOPTIMRing [vertices=[1641794_79_1, 1641793_4_1, 1641792_1_0, 1641798_76_1, 1641800_65_1, 1641803_80_1]] DENOPTIMRing [vertices=[1641795_79_1, 1641793_4_1, 1641792_1_0, 1641796_76_1, 1641799_65_1, 1641804_80_1]] SymmetricSet [symIds=[1641794, 1641795]] SymmetricSet [symIds=[1641796, 1641798]] SymmetricSet [symIds=[1641799, 1641800]] SymmetricSet [symIds=[1641801, 1641802]] SymmetricSet [symIds=[1641803, 1641804]] 

> <GraphJson>
{
  "graphId": 37940,
  "gVertices": [
    {
      "lstAPs": [
        {
          "id": 2699292,
          "atomPositionNumber": 0,
          "atomPositionNumberInMol": -1,
          "apClass": {
            "rule": "Xlig",
            "subClass": 0,
            "bndTyp": "SINGLE"
          },
          "dirVec": {
            "x": -2.3339,
            "y": -0.0087,
            "z": 0.8172
          }
        },
        {
          "id": 2699293,
          "atomPositionNumber": 0,
          "atomPositionNumberInMol": -1,
          "apClass": {
            "rule": "Xlig",
            "subClass": 0,
            "bndTyp": "SINGLE"
          },
          "dirVec": {
            "x": 2.336,
            "y": -5.0E-4,
            "z": 0.829
          }
        },
        {
          "id": 2699294,
          "atomPositionNumber": 0,
          "atomPositionNumberInMol": -1,
          "apClass": {
            "rule": "scaff",
            "subClass": 0,
            "bndTyp": "SINGLE"
          },
          "dirVec": {
            "x": -0.0095,
            "y": 0.0046,
            "z": -1.7113
          }
        }
      ],
      "lstSymAPs": [
        {
          "symIds": [
            0,
            1
          ]
        }
      ],
      "mol": {
        "atoms": [
          {
            "elSymbol": "Pt",
            "p3d": {
              "x": -0.0098,
              "y": 0.0049,
              "z": 0.6289
            }
          },
          {
            "elSymbol": "C",
            "p3d": {
              "x": -6.0E-4,
              "y": 0.0016,
              "z": 2.5609
            }
          },
          {
            "elSymbol": "O",
            "p3d": {
              "x": 0.0025,
              "y": -0.0041,
              "z": 3.6974
            }
          },
          {
            "elSymbol": "Du",
            "p3d": {
              "x": -0.007,
              "y": 1.0013,
              "z": 0.6372
            }
          },
          {
            "elSymbol": "Du",
            "p3d": {
              "x": -0.0014,
              "y": 0.9902,
              "z": 2.5698
            }
          }
        ],
        "bonds": [
          {
            "atomIds": [
              1,
              2
            ],
            "bo": "TRIPLE"
          },
          {
            "atomIds": [
              0,
              1
            ],
            "bo": "SINGLE"
          },
          {
            "atomIds": [
              3,
              0
            ],
            "bo": "SINGLE"
          },
          {
            "atomIds": [
              4,
              1
            ],
            "bo": "SINGLE"
          }
        ]
      },
      "vertexId": 1641792,
      "buildingBlockId": 0,
      "buildingBlockType": "SCAFFOLD",
      "isRCV": false,
      "properties": {
        "ATTACHMENT_POINTS": "1#Xlig:0:SINGLE:-2.3339%-0.0087%0.8172,Xlig:0:SINGLE:2.3360%-0.0005%0.8290,scaff:0:SINGLE:-0.0095%0.0046%-1.7113 ",
        "OLDVERTEXID": 169
      },
      "uniquefyingPropertyKeys": [],
      "allowedMutationTypes": [
        "DELETE",
        "EXTEND",
        "CHANGEBRANCH",
        "CHANGELINK",
        "ADDLINK",
        "DELETELINK",
        "DELETECHAIN"
      ],
      "vertexType": "MolecularFragment"
    },
    {
      "lstAPs": [
        {
          "id": 2699295,
          "atomPositionNumber": 0,
          "atomPositionNumberInMol": -1,
          "apClass": {
            "rule": "LMonoAminoPhosphineN",
            "subClass": 0,
            "bndTyp": "SINGLE"
          },
          "dirVec": {
            "x": 1.5576360714278132,
            "y": 0.04489007948791429,
            "z": -2.241202695388179
          }
        },
        {
          "id": 2699296,
          "atomPositionNumber": 0,
          "atomPositionNumberInMol": -1,
          "apClass": {
            "rule": "LMonoAminoPhosphineSubR",
            "subClass": 0,
            "bndTyp": "SINGLE"
          },
          "dirVec": {
            "x": -0.7810356757784612,
            "y": -1.5410049186499182,
            "z": -2.385973734275668
          }
        },
        {
          "id": 2699297,
          "atomPositionNumber": 0,
          "atomPositionNumberInMol": -1,
          "apClass": {
            "rule": "LMonoAminoPhosphineSubR",
            "subClass": 0,
            "bndTyp": "SINGLE"
          },
          "dirVec": {
            "x": -0.8999787291693976,
            "y": 1.4011327409517724,
            "z": -2.44926553472034
          }
        },
        {
          "id": 2699298,
          "atomPositionNumber": 0,
          "atomPositionNumberInMol": -1,
          "apClass": {
            "rule": "MMonoAminoPhosphine",
            "subClass": 1,
            "bndTyp": "SINGLE"
          },
          "dirVec": {
            "x": -0.009798817884168738,
            "y": 0.004898817884168566,
            "z": 0.6196787084387736
          }
        }
      ],
      "lstSymAPs": [
        {
          "symIds": [
            1,
            2
          ]
        }
      ],
      "mol": {
        "atoms": [
          {
            "elSymbol": "P",
            "p3d": {
              "x": -0.009501182115831262,
              "y": 0.0046011821158314335,
              "z": -1.702078708438774
            }
          }
        ],
        "bonds": []
      },
      "vertexId": 1641793,
      "buildingBlockId": 3,
      "buildingBlockType": "FRAGMENT",
      "isRCV": false,
      "properties": {
        "ATTACHMENT_POINTS": "1#LMonoAminoPhosphineN:0:SINGLE:1.5576%0.0449%-2.2412,LMonoAminoPhosphineSubR:0:SINGLE:-0.7810%-1.5410%-2.3860,LMonoAminoPhosphineSubR:0:SINGLE:-0.9000%1.4011%-2.4493,MMonoAminoPhosphine:1:SINGLE:-0.0098%0.0049%0.6197 ",
        "OLDVERTEXID": 170
      },
      "uniquefyingPropertyKeys": [],
      "allowedMutationTypes": [
        "DELETE",
        "EXTEND",
        "CHANGEBRANCH",
        "CHANGELINK",
        "ADDLINK",
        "DELETELINK",
        "DELETECHAIN"
      ],
      "vertexType": "MolecularFragment"
    },
    {
      "lstAPs": [
        {
          "id": 2699299,
          "atomPositionNumber": 0,
          "atomPositionNumberInMol": -1,
          "apClass": {
            "rule": "ATplus",
            "subClass": 0,
            "bndTyp": "ANY"
          },
          "dirVec": {
            "x": -0.7810356757784612,
            "y": -1.5410049186499182,
            "z": -2.385973734275668
          }
        }
      ],
      "lstSymAPs": [],
      "mol": {
        "atoms": [
          {
            "elSymbol": "ATP",
            "p3d": {
              "x": -0.7897530259255463,
              "y": -1.5584682850716631,
              "z": -2.393700870849651
            }
          }
        ],
        "bonds": []
      },
      "vertexId": 1641794,
      "buildingBlockId": 78,
      "buildingBlockType": "FRAGMENT",
      "isRCV": true,
      "properties": {
        "ATTACHMENT_POINTS": "1#ATplus:0:ANY:-0.7810%-1.5410%-2.3860 ",
        "OLDVERTEXID": 171
      },
      "uniquefyingPropertyKeys": [],
      "allowedMutationTypes": [
        "DELETE",
        "EXTEND",
        "CHANGEBRANCH",
        "CHANGELINK",
        "ADDLINK",
        "DELETELINK",
        "DELETECHAIN"
      ],
      "vertexType": "MolecularFragment"
    },
    {
      "lstAPs": [
        {
          "id": 2699300,
          "atomPositionNumber": 0,
          "atomPositionNumberInMol": -1,
          "apClass": {
            "rule": "ATplus",
            "subClass": 0,
            "bndTyp": "ANY"
          },
          "dirVec": {
            "x": -0.8999787291693976,
            "y": 1.4011327409517724,
            "z": -2.44926553472034
          }
        }
      ],
      "lstSymAPs": [],
      "mol": {
        "atoms": [
          {
            "elSymbol": "ATP",
            "p3d": {
              "x": -0.9102665054814141,
              "y": 1.4172670099600302,
              "z": -2.457897858979952
            }
          }
        ],
        "bonds": []
      },
      "vertexId": 1641795,
      "buildingBlockId": 78,
      "buildingBlockType": "FRAGMENT",
      "isRCV": true,
      "properties": {
        "ATTACHMENT_POINTS": "1#ATplus:0:ANY:-0.9000%1.4011%-2.4493 ",
        "OLDVERTEXID": 172
      },
      "uniquefyingPropertyKeys": [],
      "allowedMutationTypes": [
        "DELETE",
        "EXTEND",
        "CHANGEBRANCH",
        "CHANGELINK",
        "ADDLINK",
        "DELETELINK",
        "DELETECHAIN"
      ],
      "vertexType": "MolecularFragment"
    },
    {
      "lstAPs": [
        {
          "id": 2699301,
          "atomPositionNumber": 0,
          "atomPositionNumberInMol": -1,
          "apClass": {
            "rule": "Xlig",
            "subClass": 1,
            "bndTyp": "SINGLE"
          },
          "dirVec": {
            "x": 2.9612,
            "y": 0.482,
            "z": 3.1597
          }
        },
        {
          "id": 2699302,
          "atomPositionNumber": 2,
          "atomPositionNumberInMol": -1,
          "apClass": {
            "rule": "bridge",
            "subClass": 1,
            "bndTyp": "SINGLE"
          },
          "dirVec": {
            "x": 0.31479999999999997,
            "y": 0.7222,
            "z": 2.0817
          }
        }
      ],
      "lstSymAPs": [],
      "mol": {
        "atoms": [
          {
            "elSymbol": "O",
            "p3d": {
              "x": 2.5349,
              "y": 1.3185,
              "z": 1.3621
            }
          },
          {
            "elSymbol": "O",
            "p3d": {
              "x": 0.8537,
              "y": 1.7439,
              "z": 0.0154
            }
          },
          {
            "elSymbol": "C",
            "p3d": {
              "x": 1.2704,
              "y": 1.2787,
              "z": 1.0674
            }
          }
        ],
        "bonds": [
          {
            "atomIds": [
              1,
              2
            ],
            "bo": "DOUBLE"
          },
          {
            "atomIds": [
              2,
              0
            ],
            "bo": "SINGLE"
          }
        ]
      },
      "vertexId": 1641796,
      "buildingBlockId": 75,
      "buildingBlockType": "FRAGMENT",
      "isRCV": false,
      "properties": {
        "ATTACHMENT_POINTS": "1#Xlig:1:SINGLE:2.9612%0.4820%3.1597 3#bridge:1:SINGLE:0.3148%0.7222%2.0817 ",
        "OLDVERTEXID": 12617
      },
      "uniquefyingPropertyKeys": [],
      "allowedMutationTypes": [
        "DELETE",
        "EXTEND",
        "CHANGEBRANCH",
        "CHANGELINK",
        "ADDLINK",
        "DELETELINK",
        "DELETECHAIN"
      ],
      "vertexType": "MolecularFragment"
    },
    {
      "lstAPs": [
        {
          "id": 2699303,
          "atomPositionNumber": 0,
          "atomPositionNumberInMol": -1,
          "apClass": {
            "rule": "LAminoPhosphineN",
            "subClass": 1,
            "bndTyp": "SINGLE"
          },
          "dirVec": {
            "x": 6.6462,
            "y": 11.4323,
            "z": 3.6382
          }
        },
        {
          "id": 2699304,
          "atomPositionNumber": 0,
          "atomPositionNumberInMol": -1,
          "apClass": {
            "rule": "AminoPhosphineSubN",
            "subClass": 0,
            "bndTyp": "SINGLE"
          },
          "dirVec": {
            "x": 8.2507,
            "y": 9.4804,
            "z": 2.5125
          }
        },
        {
          "id": 2699305,
          "atomPositionNumber": 0,
          "atomPositionNumberInMol": -1,
          "apClass": {
            "rule": "AminoPhosphineSubN",
            "subClass": 0,
            "bndTyp": "SINGLE"
          },
          "dirVec": {
            "x": 8.652,
            "y": 10.1585,
            "z": 4.8699
          }
        }
      ],
      "lstSymAPs": [
        {
          "symIds": [
            1,
            2
          ]
        }
      ],
      "mol": {
        "atoms": [
          {
            "elSymbol": "N",
            "p3d": {
              "x": 7.9829,
              "y": 10.4428,
              "z": 3.602
            }
          }
        ],
        "bonds": []
      },
      "vertexId": 1641797,
      "buildingBlockId": 5,
      "buildingBlockType": "FRAGMENT",
      "isRCV": false,
      "properties": {
        "ATTACHMENT_POINTS": "1#LAminoPhosphineN:1:SINGLE:6.6462%11.4323%3.6382,AminoPhosphineSubN:0:SINGLE:8.2507%9.4804%2.5125,AminoPhosphineSubN:0:SINGLE:8.6520%10.1585%4.8699 ",
        "OLDVERTEXID": 12627
      },
      "uniquefyingPropertyKeys": [],
      "allowedMutationTypes": [
        "DELETE",
        "EXTEND",
        "CHANGEBRANCH",
        "CHANGELINK",
        "ADDLINK",
        "DELETELINK",
        "DELETECHAIN"
      ],
      "vertexType": "MolecularFragment"
    },
    {
      "lstAPs": [
        {
          "id": 2699306,
          "atomPositionNumber": 0,
          "atomPositionNumberInMol": -1,
          "apClass": {
            "rule": "Xlig",
            "subClass": 1,
            "bndTyp": "SINGLE"
          },
          "dirVec": {
            "x": 2.9612,
            "y": 0.482,
            "z": 3.1597
          }
        },
        {
          "id": 2699307,
          "atomPositionNumber": 2,
          "atomPositionNumberInMol": -1,
          "apClass": {
            "rule": "bridge",
            "subClass": 1,
            "bndTyp": "SINGLE"
          },
          "dirVec": {
            "x": 0.31479999999999997,
            "y": 0.7222,
            "z": 2.0817
          }
        }
      ],
      "lstSymAPs": [],
      "mol": {
        "atoms": [
          {
            "elSymbol": "O",
            "p3d": {
              "x": 2.5349,
              "y": 1.3185,
              "z": 1.3621
            }
          },
          {
            "elSymbol": "O",
            "p3d": {
              "x": 0.8537,
              "y": 1.7439,
              "z": 0.0154
            }
          },
          {
            "elSymbol": "C",
            "p3d": {
              "x": 1.2704,
              "y": 1.2787,
              "z": 1.0674
            }
          }
        ],
        "bonds": [
          {
            "atomIds": [
              1,
              2
            ],
            "bo": "DOUBLE"
          },
          {
            "atomIds": [
              2,
              0
            ],
            "bo": "SINGLE"
          }
        ]
      },
      "vertexId": 1641798,
      "buildingBlockId": 75,
      "buildingBlockType": "FRAGMENT",
      "isRCV": false,
      "properties": {
        "ATTACHMENT_POINTS": "1#Xlig:1:SINGLE:2.9612%0.4820%3.1597 3#bridge:1:SINGLE:0.3148%0.7222%2.0817 ",
        "OLDVERTEXID": 13056
      },
      "uniquefyingPropertyKeys": [],
      "allowedMutationTypes": [
        "DELETE",
        "EXTEND",
        "CHANGEBRANCH",
        "CHANGELINK",
        "ADDLINK",
        "DELETELINK",
        "DELETECHAIN"
      ],
      "vertexType": "MolecularFragment"
    },
    {
      "lstAPs": [
        {
          "id": 2699308,
          "atomPositionNumber": 0,
          "atomPositionNumberInMol": -1,
          "apClass": {
            "rule": "bridge",
            "subClass": 0,
            "bndTyp": "SINGLE"
          },
          "dirVec": {
            "x": -1.2321,
            "y": -0.7501,
            "z": -0.255
          }
        },
        {
          "id": 2699309,
          "atomPositionNumber": 2,
          "atomPositionNumberInMol": -1,
          "apClass": {
            "rule": "bridge",
            "subClass": 0,
            "bndTyp": "SINGLE"
          },
          "dirVec": {
            "x": 1.2657,
            "y": -0.692,
            "z": -0.255
          }
        }
      ],
      "lstSymAPs": [
        {
          "symIds": [
            0,
            1
          ]
        }
      ],
      "mol": {
        "atoms": [
          {
            "elSymbol": "C",
            "p3d": {
              "x": -1.2657,
              "y": 0.692,
              "z": 0.255
            }
          },
          {
            "elSymbol": "C",
            "p3d": {
              "x": -0.0335,
              "y": 1.4421,
              "z": -0.255
            }
          },
          {
            "elSymbol": "C",
            "p3d": {
              "x": 1.2321,
              "y": 0.7501,
              "z": 0.255
            }
          },
          {
            "elSymbol": "H",
            "p3d": {
              "x": -2.1673,
              "y": 1.1851,
              "z": -0.1083
            }
          },
          {
            "elSymbol": "H",
            "p3d": {
              "x": -1.2657,
              "y": 0.692,
              "z": 1.345
            }
          },
          {
            "elSymbol": "H",
            "p3d": {
              "x": -0.0335,
              "y": 1.4421,
              "z": -1.345
            }
          },
          {
            "elSymbol": "H",
            "p3d": {
              "x": -0.0574,
              "y": 2.4695,
              "z": 0.1083
            }
          },
          {
            "elSymbol": "H",
            "p3d": {
              "x": 2.11,
              "y": 1.2844,
              "z": -0.1083
            }
          },
          {
            "elSymbol": "H",
            "p3d": {
              "x": 1.2321,
              "y": 0.7501,
              "z": 1.345
            }
          }
        ],
        "bonds": [
          {
            "atomIds": [
              0,
              1
            ],
            "bo": "SINGLE"
          },
          {
            "atomIds": [
              1,
              2
            ],
            "bo": "SINGLE"
          },
          {
            "atomIds": [
              0,
              3
            ],
            "bo": "SINGLE"
          },
          {
            "atomIds": [
              0,
              4
            ],
            "bo": "SINGLE"
          },
          {
            "atomIds": [
              1,
              5
            ],
            "bo": "SINGLE"
          },
          {
            "atomIds": [
              1,
              6
            ],
            "bo": "SINGLE"
          },
          {
            "atomIds": [
              2,
              7
            ],
            "bo": "SINGLE"
          },
          {
            "atomIds": [
              2,
              8
            ],
            "bo": "SINGLE"
          }
        ]
      },
      "vertexId": 1641799,
      "buildingBlockId": 64,
      "buildingBlockType": "FRAGMENT",
      "isRCV": false,
      "properties": {
        "ATTACHMENT_POINTS": "1#bridge:0:SINGLE:-1.2321%-0.7501%-0.2550 3#bridge:0:SINGLE:1.2657%-0.6920%-0.2550 ",
        "OLDVERTEXID": 295644
      },
      "uniquefyingPropertyKeys": [],
      "allowedMutationTypes": [
        "DELETE",
        "EXTEND",
        "CHANGEBRANCH",
        "CHANGELINK",
        "ADDLINK",
        "DELETELINK",
        "DELETECHAIN"
      ],
      "vertexType": "MolecularFragment"
    },
    {
      "lstAPs": [
        {
          "id": 2699310,
          "atomPositionNumber": 0,
          "atomPositionNumberInMol": -1,
          "apClass": {
            "rule": "bridge",
            "subClass": 0,
            "bndTyp": "SINGLE"
          },
          "dirVec": {
            "x": -1.2321,
            "y": -0.7501,
            "z": -0.255
          }
        },
        {
          "id": 2699311,
          "atomPositionNumber": 2,
          "atomPositionNumberInMol": -1,
          "apClass": {
            "rule": "bridge",
            "subClass": 0,
            "bndTyp": "SINGLE"
          },
          "dirVec": {
            "x": 1.2657,
            "y": -0.692,
            "z": -0.255
          }
        }
      ],
      "lstSymAPs": [
        {
          "symIds": [
            0,
            1
          ]
        }
      ],
      "mol": {
        "atoms": [
          {
            "elSymbol": "C",
            "p3d": {
              "x": -1.2657,
              "y": 0.692,
              "z": 0.255
            }
          },
          {
            "elSymbol": "C",
            "p3d": {
              "x": -0.0335,
              "y": 1.4421,
              "z": -0.255
            }
          },
          {
            "elSymbol": "C",
            "p3d": {
              "x": 1.2321,
              "y": 0.7501,
              "z": 0.255
            }
          },
          {
            "elSymbol": "H",
            "p3d": {
              "x": -2.1673,
              "y": 1.1851,
              "z": -0.1083
            }
          },
          {
            "elSymbol": "H",
            "p3d": {
              "x": -1.2657,
              "y": 0.692,
              "z": 1.345
            }
          },
          {
            "elSymbol": "H",
            "p3d": {
              "x": -0.0335,
              "y": 1.4421,
              "z": -1.345
            }
          },
          {
            "elSymbol": "H",
            "p3d": {
              "x": -0.0574,
              "y": 2.4695,
              "z": 0.1083
            }
          },
          {
            "elSymbol": "H",
            "p3d": {
              "x": 2.11,
              "y": 1.2844,
              "z": -0.1083
            }
          },
          {
            "elSymbol": "H",
            "p3d": {
              "x": 1.2321,
              "y": 0.7501,
              "z": 1.345
            }
          }
        ],
        "bonds": [
          {
            "atomIds": [
              0,
              1
            ],
            "bo": "SINGLE"
          },
          {
            "atomIds": [
              1,
              2
            ],
            "bo": "SINGLE"
          },
          {
            "atomIds": [
              0,
              3
            ],
            "bo": "SINGLE"
          },
          {
            "atomIds": [
              0,
              4
            ],
            "bo": "SINGLE"
          },
          {
            "atomIds": [
              1,
              5
            ],
            "bo": "SINGLE"
          },
          {
            "atomIds": [
              1,
              6
            ],
            "bo": "SINGLE"
          },
          {
            "atomIds": [
              2,
              7
            ],
            "bo": "SINGLE"
          },
          {
            "atomIds": [
              2,
              8
            ],
            "bo": "SINGLE"
          }
        ]
      },
      "vertexId": 1641800,
      "buildingBlockId": 64,
      "buildingBlockType": "FRAGMENT",
      "isRCV": false,
      "properties": {
        "ATTACHMENT_POINTS": "1#bridge:0:SINGLE:-1.2321%-0.7501%-0.2550 3#bridge:0:SINGLE:1.2657%-0.6920%-0.2550 ",
        "OLDVERTEXID": 295679
      },
      "uniquefyingPropertyKeys": [],
      "allowedMutationTypes": [
        "DELETE",
        "EXTEND",
        "CHANGEBRANCH",
        "CHANGELINK",
        "ADDLINK",
        "DELETELINK",
        "DELETECHAIN"
      ],
      "vertexType": "MolecularFragment"
    },
    {
      "lstAPs": [
        {
          "id": 2699312,
          "atomPositionNumber": 0,
          "atomPositionNumberInMol": -1,
          "apClass": {
            "rule": "SubRS",
            "subClass": 1,
            "bndTyp": "SINGLE"
          },
          "dirVec": {
            "x": 0.2865,
            "y": 0.3959,
            "z": -0.6387
          }
        }
      ],
      "lstSymAPs": [],
      "mol": {
        "atoms": [
          {
            "elSymbol": "C",
            "p3d": {
              "x": 0.3969,
              "y": -0.0496,
              "z": 0.8235
            }
          },
          {
            "elSymbol": "H",
            "p3d": {
              "x": -0.6146,
              "y": -0.163,
              "z": 1.2402
            }
          },
          {
            "elSymbol": "H",
            "p3d": {
              "x": 0.9335,
              "y": -0.9979,
              "z": 0.8998
            }
          },
          {
            "elSymbol": "H",
            "p3d": {
              "x": 0.9252,
              "y": 0.7237,
              "z": 1.3995
            }
          }
        ],
        "bonds": [
          {
            "atomIds": [
              0,
              1
            ],
            "bo": "SINGLE"
          },
          {
            "atomIds": [
              0,
              2
            ],
            "bo": "SINGLE"
          },
          {
            "atomIds": [
              0,
              3
            ],
            "bo": "SINGLE"
          }
        ]
      },
      "vertexId": 1641801,
      "buildingBlockId": 23,
      "buildingBlockType": "FRAGMENT",
      "isRCV": false,
      "properties": {
        "ATTACHMENT_POINTS": "1#SubRS:1:SINGLE:0.2865%0.3959%-0.6387 ",
        "OLDVERTEXID": 295678
      },
      "uniquefyingPropertyKeys": [],
      "allowedMutationTypes": [
        "DELETE",
        "EXTEND",
        "CHANGEBRANCH",
        "CHANGELINK",
        "ADDLINK",
        "DELETELINK",
        "DELETECHAIN"
      ],
      "vertexType": "MolecularFragment"
    },
    {
      "lstAPs": [
        {
          "id": 2699313,
          "atomPositionNumber": 0,
          "atomPositionNumberInMol": -1,
          "apClass": {
            "rule": "SubRS",
            "subClass": 1,
            "bndTyp": "SINGLE"
          },
          "dirVec": {
            "x": 0.2865,
            "y": 0.3959,
            "z": -0.6387
          }
        }
      ],
      "lstSymAPs": [],
      "mol": {
        "atoms": [
          {
            "elSymbol": "C",
            "p3d": {
              "x": 0.3969,
              "y": -0.0496,
              "z": 0.8235
            }
          },
          {
            "elSymbol": "H",
            "p3d": {
              "x": -0.6146,
              "y": -0.163,
              "z": 1.2402
            }
          },
          {
            "elSymbol": "H",
            "p3d": {
              "x": 0.9335,
              "y": -0.9979,
              "z": 0.8998
            }
          },
          {
            "elSymbol": "H",
            "p3d": {
              "x": 0.9252,
              "y": 0.7237,
              "z": 1.3995
            }
          }
        ],
        "bonds": [
          {
            "atomIds": [
              0,
              1
            ],
            "bo": "SINGLE"
          },
          {
            "atomIds": [
              0,
              2
            ],
            "bo": "SINGLE"
          },
          {
            "atomIds": [
              0,
              3
            ],
            "bo": "SINGLE"
          }
        ]
      },
      "vertexId": 1641802,
      "buildingBlockId": 23,
      "buildingBlockType": "FRAGMENT",
      "isRCV": false,
      "properties": {
        "ATTACHMENT_POINTS": "1#SubRS:1:SINGLE:0.2865%0.3959%-0.6387 ",
        "OLDVERTEXID": 295662
      },
      "uniquefyingPropertyKeys": [],
      "allowedMutationTypes": [
        "DELETE",
        "EXTEND",
        "CHANGEBRANCH",
        "CHANGELINK",
        "ADDLINK",
        "DELETELINK",
        "DELETECHAIN"
      ],
      "vertexType": "MolecularFragment"
    },
    {
      "lstAPs": [
        {
          "id": 2699314,
          "atomPositionNumber": 0,
          "atomPositionNumberInMol": -1,
          "apClass": {
            "rule": "ATminus",
            "subClass": 0,
            "bndTyp": "ANY"
          },
          "dirVec": {
            "x": 0.0109,
            "y": -0.0071,
            "z": 0.0026
          }
        }
      ],
      "lstSymAPs": [],
      "mol": {
        "atoms": [
          {
            "elSymbol": "ATM",
            "p3d": {
              "x": -0.0096,
              "y": 0.0045,
              "z": -0.0011
            }
          }
        ],
        "bonds": []
      },
      "vertexId": 1641803,
      "buildingBlockId": 79,
      "buildingBlockType": "FRAGMENT",
      "isRCV": true,
      "properties": {
        "ATTACHMENT_POINTS": "1#ATminus:0:ANY:0.0109%-0.0071%0.0026 ",
        "OLDVERTEXID": 1641655
      },
      "uniquefyingPropertyKeys": [],
      "allowedMutationTypes": [
        "DELETE",
        "EXTEND",
        "CHANGEBRANCH",
        "CHANGELINK",
        "ADDLINK",
        "DELETELINK",
        "DELETECHAIN"
      ],
      "vertexType": "MolecularFragment"
    },
    {
      "lstAPs": [
        {
          "id": 2699315,
          "atomPositionNumber": 0,
          "atomPositionNumberInMol": -1,
          "apClass": {
            "rule": "ATminus",
            "subClass": 0,
            "bndTyp": "ANY"
          },
          "dirVec": {
            "x": 0.0109,
            "y": -0.0071,
            "z": 0.0026
          }
        }
      ],
      "lstSymAPs": [],
      "mol": {
        "atoms": [
          {
            "elSymbol": "ATM",
            "p3d": {
              "x": -0.0096,
              "y": 0.0045,
              "z": -0.0011
            }
          }
        ],
        "bonds": []
      },
      "vertexId": 1641804,
      "buildingBlockId": 79,
      "buildingBlockType": "FRAGMENT",
      "isRCV": true,
      "properties": {
        "ATTACHMENT_POINTS": "1#ATminus:0:ANY:0.0109%-0.0071%0.0026 ",
        "OLDVERTEXID": 1641651
      },
      "uniquefyingPropertyKeys": [],
      "allowedMutationTypes": [
        "DELETE",
        "EXTEND",
        "CHANGEBRANCH",
        "CHANGELINK",
        "ADDLINK",
        "DELETELINK",
        "DELETECHAIN"
      ],
      "vertexType": "MolecularFragment"
    }
  ],
  "gEdges": [
    {
      "srcAPID": 2699294,
      "trgAPID": 2699298,
      "bondType": "SINGLE"
    },
    {
      "srcAPID": 2699296,
      "trgAPID": 2699299,
      "bondType": "SINGLE"
    },
    {
      "srcAPID": 2699297,
      "trgAPID": 2699300,
      "bondType": "SINGLE"
    },
    {
      "srcAPID": 2699292,
      "trgAPID": 2699301,
      "bondType": "SINGLE"
    },
    {
      "srcAPID": 2699295,
      "trgAPID": 2699303,
      "bondType": "SINGLE"
    },
    {
      "srcAPID": 2699293,
      "trgAPID": 2699306,
      "bondType": "SINGLE"
    },
    {
      "srcAPID": 2699302,
      "trgAPID": 2699308,
      "bondType": "SINGLE"
    },
    {
      "srcAPID": 2699307,
      "trgAPID": 2699310,
      "bondType": "SINGLE"
    },
    {
      "srcAPID": 2699305,
      "trgAPID": 2699312,
      "bondType": "SINGLE"
    },
    {
      "srcAPID": 2699304,
      "trgAPID": 2699313,
      "bondType": "SINGLE"
    },
    {
      "srcAPID": 2699311,
      "trgAPID": 2699314,
      "bondType": "SINGLE"
    },
    {
      "srcAPID": 2699309,
      "trgAPID": 2699315,
      "bondType": "SINGLE"
    }
  ],
  "gRings": [
    {
      "vertices": [
        1641794,
        1641793,
        1641792,
        1641798,
        1641800,
        1641803
      ],
      "bndTyp": "SINGLE"
    },
    {
      "vertices": [
        1641795,
        1641793,
        1641792,
        1641796,
        1641799,
        1641804
      ],
      "bndTyp": "SINGLE"
    }
  ],
  "symVertices": [
    {
      "symIds": [
        1641794,
        1641795
      ]
    },
    {
      "symIds": [
        1641796,
        1641798
      ]
    },
    {
      "symIds": [
        1641799,
        1641800
      ]
    },
    {
      "symIds": [
        1641801,
        1641802
      ]
    },
    {
      "symIds": [
        1641803,
        1641804
      ]
    }
  ]
}

> <SMILES>
[Pt]12(C#O)[P](N(C([H])([H])[H])C([H])([H])[H])(C(C(C([H])([H])C(=O)O1)([H])[H])([H])[H])C(C(C([H])([H])C(=O)O2)([H])[H])([H])[H]

$$$$
