M30083363
  CDK     05082206183D

 46 50  0  0  0  0  0  0  0  0999 V2000
    2.4690    0.2414    0.1861 Pt  0  0  0  0  0  0  0  0  0  0  0  0
    4.3800    0.3062    0.3698 C   0  0  0  0  0  0  0  0  0  0  0  0
    5.5179    0.3462    0.4800 O   0  0  0  0  0  0  0  0  0  0  0  0
   -0.3778   -0.9214    0.1484 N   0  0  1  0  0  0  0  0  0  0  0  0
   -0.3349    1.2731   -0.3072 N   0  0  1  0  0  0  0  0  0  0  0  0
    0.4364    0.1808   -0.0045 C   0  0  1  0  0  0  0  0  0  0  0  0
   -1.8530   -0.5502    0.0975 C   0  0  0  0  0  0  0  0  0  0  0  0
   -1.7810    0.9176   -0.4439 C   0  0  0  0  0  0  0  0  0  0  0  0
   -2.4149    1.6145    0.1382 H   0  0  0  0  0  0  0  0  0  0  0  0
   -2.0942    0.9901   -1.5057 H   0  0  0  0  0  0  0  0  0  0  0  0
   -2.4652   -0.5511    1.5001 C   0  0  0  0  0  0  0  0  0  0  0  0
   -3.5215   -0.2619    1.4766 H   0  0  0  0  0  0  0  0  0  0  0  0
   -2.4099   -1.5409    1.9795 H   0  0  0  0  0  0  0  0  0  0  0  0
   -1.9422    0.1440    2.1720 H   0  0  0  0  0  0  0  0  0  0  0  0
   -2.6168   -1.4572   -0.8623 C   0  0  0  0  0  0  0  0  0  0  0  0
   -2.1343   -1.5140   -1.8477 H   0  0  0  0  0  0  0  0  0  0  0  0
   -2.6869   -2.4881   -0.4851 H   0  0  0  0  0  0  0  0  0  0  0  0
   -3.6435   -1.1040   -1.0157 H   0  0  0  0  0  0  0  0  0  0  0  0
    2.7054   -2.0231   -0.3141 S   0  0  0  0  0  0  0  0  0  0  0  0
    1.4770   -2.4511    0.9497 C   0  0  2  0  0  0  0  0  0  0  0  0
    1.5766   -3.9080    1.4047 C   0  0  0  0  0  0  0  0  0  0  0  0
    0.1248   -4.3710    1.6571 C   0  0  0  0  0  0  0  0  0  0  0  0
   -0.8077   -3.2457    1.1672 C   0  0  0  0  0  0  0  0  0  0  0  0
    0.0855   -2.3329    0.2925 C   0  0  1  0  0  0  0  0  0  0  0  0
    1.5859   -1.7571    1.8181 H   0  0  0  0  0  0  0  0  0  0  0  0
    2.0612   -4.5447    0.6401 H   0  0  0  0  0  0  0  0  0  0  0  0
    2.2001   -4.0035    2.3102 H   0  0  0  0  0  0  0  0  0  0  0  0
   -0.0439   -4.5801    2.7266 H   0  0  0  0  0  0  0  0  0  0  0  0
   -0.0796   -5.3137    1.1214 H   0  0  0  0  0  0  0  0  0  0  0  0
   -1.2318   -2.6926    2.0286 H   0  0  0  0  0  0  0  0  0  0  0  0
   -1.6626   -3.6432    0.5948 H   0  0  0  0  0  0  0  0  0  0  0  0
    0.1143   -2.7571   -0.7526 H   0  0  0  0  0  0  0  0  0  0  0  0
    2.5057    2.5258    0.6893 S   0  0  0  0  0  0  0  0  0  0  0  0
    1.5639    2.8587   -0.8237 C   0  0  2  0  0  0  0  0  0  0  0  0
    1.6659    4.2954   -1.3366 C   0  0  0  0  0  0  0  0  0  0  0  0
    0.2938    4.5962   -1.9852 C   0  0  0  0  0  0  0  0  0  0  0  0
   -0.6569    3.4360   -1.6153 C   0  0  0  0  0  0  0  0  0  0  0  0
    0.0725    2.6926   -0.4693 C   0  0  1  0  0  0  0  0  0  0  0  0
    1.8856    2.1377   -1.6163 H   0  0  0  0  0  0  0  0  0  0  0  0
    1.8779    5.0086   -0.5179 H   0  0  0  0  0  0  0  0  0  0  0  0
    2.4942    4.4104   -2.0561 H   0  0  0  0  0  0  0  0  0  0  0  0
    0.3869    4.6881   -3.0801 H   0  0  0  0  0  0  0  0  0  0  0  0
   -0.1019    5.5605   -1.6247 H   0  0  0  0  0  0  0  0  0  0  0  0
   -0.8177    2.7774   -2.4863 H   0  0  0  0  0  0  0  0  0  0  0  0
   -1.6460    3.8041   -1.3055 H   0  0  0  0  0  0  0  0  0  0  0  0
   -0.1562    3.2072    0.5074 H   0  0  0  0  0  0  0  0  0  0  0  0
  2  3  3  0  0  0  0
  1  2  1  0  0  0  0
  4  6  1  0  0  0  0
  5  6  1  0  0  0  0
  7  4  1  0  0  0  0
  7  8  1  0  0  0  0
  8  5  1  0  0  0  0
  9  8  1  0  0  0  0
 10  8  1  0  0  0  0
  1  6  1  0  0  0  0
 11 12  1  0  0  0  0
 11 13  1  0  0  0  0
 11 14  1  0  0  0  0
  7 11  1  0  0  0  0
 15 16  1  0  0  0  0
 15 17  1  0  0  0  0
 15 18  1  0  0  0  0
  7 15  1  0  0  0  0
  1 19  1  0  0  0  0
 20 21  1  0  0  0  0
 21 22  1  0  0  0  0
 22 23  1  0  0  0  0
 23 24  1  0  0  0  0
 20 24  1  0  0  0  0
 20 25  1  0  0  0  0
 21 26  1  0  0  0  0
 21 27  1  0  0  0  0
 22 28  1  0  0  0  0
 22 29  1  0  0  0  0
 23 30  1  0  0  0  0
 23 31  1  0  0  0  0
 24 32  1  0  0  0  0
 19 20  1  0  0  0  0
  1 33  1  0  0  0  0
 34 35  1  0  0  0  0
 35 36  1  0  0  0  0
 36 37  1  0  0  0  0
 37 38  1  0  0  0  0
 34 38  1  0  0  0  0
 34 39  1  0  0  0  0
 35 40  1  0  0  0  0
 35 41  1  0  0  0  0
 36 42  1  0  0  0  0
 36 43  1  0  0  0  0
 37 44  1  0  0  0  0
 37 45  1  0  0  0  0
 38 46  1  0  0  0  0
 33 34  1  0  0  0  0
  5 38  1  0  0  0  0
  4 24  1  0  0  0  0
M  END
> <PM6_ENERGY>
-116.697

> <UID>
SIYLRXYLHTVPSZ-SJFXZZJYNA-L

> <FITNESS>
1.14392

> <GCODE>
185532

> <GraphENC>
185532 10258517_1_0,10258518_61_1,10258519_79_1,10258520_79_1,10258521_24_1,10258522_24_1,10258523_74_1,10258524_74_1,10258525_70_1,10258526_70_1,10258527_80_1,10258528_80_1, 10258517_2_10258518_2_SINGLE_scaff:0_MImidazolidinylidene:1,10258518_0_10258519_0_SINGLE_LImidazolidinylideneSubNL:0_ATplus:0,10258518_1_10258520_0_SINGLE_LImidazolidinylideneSubNL:0_ATplus:0,10258518_3_10258521_0_SINGLE_LImidazolidinylideneSubCS:0_SubRS:1,10258518_4_10258522_0_SINGLE_LImidazolidinylideneSubCS:0_SubRS:1,10258517_0_10258523_0_SINGLE_Xlig:0_Xlig:1,10258517_1_10258524_0_SINGLE_Xlig:0_Xlig:1,10258524_1_10258525_0_SINGLE_bridge:1_bridge:0,10258523_1_10258526_0_SINGLE_bridge:1_bridge:0,10258525_1_10258527_0_SINGLE_bridge:0_ATminus:0,10258526_1_10258528_0_SINGLE_bridge:0_ATminus:0, DENOPTIMRing [vertices=[10258519_79_1, 10258518_61_1, 10258517_1_0, 10258523_74_1, 10258526_70_1, 10258528_80_1]] DENOPTIMRing [vertices=[10258520_79_1, 10258518_61_1, 10258517_1_0, 10258524_74_1, 10258525_70_1, 10258527_80_1]] SymmetricSet [symIds=[10258519, 10258520]] SymmetricSet [symIds=[10258523, 10258524]] SymmetricSet [symIds=[10258521, 10258522]] SymmetricSet [symIds=[10258525, 10258526]] SymmetricSet [symIds=[10258527, 10258528]] 

> <GraphJson>
{
  "graphId": 185532,
  "gVertices": [
    {
      "lstAPs": [
        {
          "id": 17175156,
          "atomPositionNumber": 0,
          "atomPositionNumberInMol": -1,
          "apClass": {
            "rule": "Xlig",
            "subClass": 0,
            "bndTyp": "SINGLE"
          },
          "dirVec": {
            "x": -2.3339,
            "y": -0.0087,
            "z": 0.8172
          }
        },
        {
          "id": 17175157,
          "atomPositionNumber": 0,
          "atomPositionNumberInMol": -1,
          "apClass": {
            "rule": "Xlig",
            "subClass": 0,
            "bndTyp": "SINGLE"
          },
          "dirVec": {
            "x": 2.336,
            "y": -5.0E-4,
            "z": 0.829
          }
        },
        {
          "id": 17175158,
          "atomPositionNumber": 0,
          "atomPositionNumberInMol": -1,
          "apClass": {
            "rule": "scaff",
            "subClass": 0,
            "bndTyp": "SINGLE"
          },
          "dirVec": {
            "x": -0.0095,
            "y": 0.0046,
            "z": -1.7113
          }
        }
      ],
      "lstSymAPs": [
        {
          "symIds": [
            0,
            1
          ]
        }
      ],
      "mol": {
        "atoms": [
          {
            "elSymbol": "Pt",
            "p3d": {
              "x": -0.0098,
              "y": 0.0049,
              "z": 0.6289
            }
          },
          {
            "elSymbol": "C",
            "p3d": {
              "x": -6.0E-4,
              "y": 0.0016,
              "z": 2.5609
            }
          },
          {
            "elSymbol": "O",
            "p3d": {
              "x": 0.0025,
              "y": -0.0041,
              "z": 3.6974
            }
          },
          {
            "elSymbol": "Du",
            "p3d": {
              "x": -0.007,
              "y": 1.0013,
              "z": 0.6372
            }
          },
          {
            "elSymbol": "Du",
            "p3d": {
              "x": -0.0014,
              "y": 0.9902,
              "z": 2.5698
            }
          }
        ],
        "bonds": [
          {
            "atomIds": [
              1,
              2
            ],
            "bo": "TRIPLE"
          },
          {
            "atomIds": [
              0,
              1
            ],
            "bo": "SINGLE"
          },
          {
            "atomIds": [
              3,
              0
            ],
            "bo": "SINGLE"
          },
          {
            "atomIds": [
              4,
              1
            ],
            "bo": "SINGLE"
          }
        ]
      },
      "vertexId": 10258517,
      "buildingBlockId": 0,
      "buildingBlockType": "SCAFFOLD",
      "isRCV": false,
      "properties": {
        "ATTACHMENT_POINTS": "1#Xlig:0:SINGLE:-2.3339%-0.0087%0.8172,Xlig:0:SINGLE:2.3360%-0.0005%0.8290,scaff:0:SINGLE:-0.0095%0.0046%-1.7113 ",
        "OLDVERTEXID": 209
      },
      "uniquefyingPropertyKeys": [],
      "allowedMutationTypes": [
        "DELETE",
        "EXTEND",
        "CHANGEBRANCH",
        "CHANGELINK",
        "ADDLINK",
        "DELETELINK",
        "DELETECHAIN"
      ],
      "vertexType": "MolecularFragment"
    },
    {
      "lstAPs": [
        {
          "id": 17175159,
          "atomPositionNumber": 0,
          "atomPositionNumberInMol": -1,
          "apClass": {
            "rule": "LImidazolidinylideneSubNL",
            "subClass": 0,
            "bndTyp": "SINGLE"
          },
          "dirVec": {
            "x": 0.2882482759260379,
            "y": -2.4550195985517003,
            "z": -1.6863516588387322
          }
        },
        {
          "id": 17175160,
          "atomPositionNumber": 1,
          "atomPositionNumberInMol": -1,
          "apClass": {
            "rule": "LImidazolidinylideneSubNL",
            "subClass": 0,
            "bndTyp": "SINGLE"
          },
          "dirVec": {
            "x": 0.1328821337280647,
            "y": 2.5088062068851067,
            "z": -2.172170581008468
          }
        },
        {
          "id": 17175161,
          "atomPositionNumber": 2,
          "atomPositionNumberInMol": -1,
          "apClass": {
            "rule": "MImidazolidinylidene",
            "subClass": 1,
            "bndTyp": "SINGLE"
          },
          "dirVec": {
            "x": -0.00977984519430624,
            "y": 0.004879845194306149,
            "z": 0.47167907905161655
          }
        },
        {
          "id": 17175162,
          "atomPositionNumber": 3,
          "atomPositionNumberInMol": -1,
          "apClass": {
            "rule": "LImidazolidinylideneSubCS",
            "subClass": 0,
            "bndTyp": "SINGLE"
          },
          "dirVec": {
            "x": -0.9952052299975417,
            "y": -1.6236459098745568,
            "z": -4.489065505792757
          }
        },
        {
          "id": 17175163,
          "atomPositionNumber": 3,
          "atomPositionNumberInMol": -1,
          "apClass": {
            "rule": "LImidazolidinylideneSubCS",
            "subClass": 0,
            "bndTyp": "SINGLE"
          },
          "dirVec": {
            "x": 1.4957057023199845,
            "y": -1.3536466985452669,
            "z": -4.280442177416974
          }
        }
      ],
      "lstSymAPs": [
        {
          "symIds": [
            0,
            1
          ]
        },
        {
          "symIds": [
            3,
            4
          ]
        }
      ],
      "mol": {
        "atoms": [
          {
            "elSymbol": "N",
            "p3d": {
              "x": 0.03578295116087008,
              "y": -1.1405070380389195,
              "z": -2.2647794313785288
            }
          },
          {
            "elSymbol": "N",
            "p3d": {
              "x": -0.08216887436027295,
              "y": 1.0403961354443017,
              "z": -2.407451659744955
            }
          },
          {
            "elSymbol": "C",
            "p3d": {
              "x": -0.009520154805693761,
              "y": 0.004620154805693851,
              "z": -1.5540790790516166
            }
          },
          {
            "elSymbol": "C",
            "p3d": {
              "x": 0.1388379340141097,
              "y": -0.9112501764285554,
              "z": -3.7221273589214623
            }
          },
          {
            "elSymbol": "C",
            "p3d": {
              "x": -0.06411788260394655,
              "y": 0.5954250999692482,
              "z": -3.810957184951348
            }
          },
          {
            "elSymbol": "H",
            "p3d": {
              "x": -0.9982511685081745,
              "y": 0.814350519948595,
              "z": -4.309516514071401
            }
          },
          {
            "elSymbol": "H",
            "p3d": {
              "x": 0.7198692778677406,
              "y": 1.0817584578440065,
              "z": -4.372236658327848
            }
          }
        ],
        "bonds": [
          {
            "atomIds": [
              0,
              2
            ],
            "bo": "SINGLE"
          },
          {
            "atomIds": [
              1,
              2
            ],
            "bo": "SINGLE"
          },
          {
            "atomIds": [
              3,
              0
            ],
            "bo": "SINGLE"
          },
          {
            "atomIds": [
              3,
              4
            ],
            "bo": "SINGLE"
          },
          {
            "atomIds": [
              4,
              1
            ],
            "bo": "SINGLE"
          },
          {
            "atomIds": [
              5,
              4
            ],
            "bo": "SINGLE"
          },
          {
            "atomIds": [
              6,
              4
            ],
            "bo": "SINGLE"
          }
        ]
      },
      "vertexId": 10258518,
      "buildingBlockId": 60,
      "buildingBlockType": "FRAGMENT",
      "isRCV": false,
      "properties": {
        "ATTACHMENT_POINTS": "1#LImidazolidinylideneSubNL:0:SINGLE:0.2882%-2.4550%-1.6864 2#LImidazolidinylideneSubNL:0:SINGLE:0.1329%2.5088%-2.1722 3#MImidazolidinylidene:1:SINGLE:-0.0098%0.0049%0.4717 4#LImidazolidinylideneSubCS:0:SINGLE:-0.9952%-1.6236%-4.4891,LImidazolidinylideneSubCS:0:SINGLE:1.4957%-1.3536%-4.2804 ",
        "OLDVERTEXID": 210
      },
      "uniquefyingPropertyKeys": [],
      "allowedMutationTypes": [
        "DELETE",
        "EXTEND",
        "CHANGEBRANCH",
        "CHANGELINK",
        "ADDLINK",
        "DELETELINK",
        "DELETECHAIN"
      ],
      "vertexType": "MolecularFragment"
    },
    {
      "lstAPs": [
        {
          "id": 17175164,
          "atomPositionNumber": 0,
          "atomPositionNumberInMol": -1,
          "apClass": {
            "rule": "ATplus",
            "subClass": 0,
            "bndTyp": "ANY"
          },
          "dirVec": {
            "x": 0.2882482759260379,
            "y": -2.4550195985517003,
            "z": -1.6863516588387322
          }
        }
      ],
      "lstSymAPs": [],
      "mol": {
        "atoms": [
          {
            "elSymbol": "ATP",
            "p3d": {
              "x": 0.29188282238316376,
              "y": -2.473943611083335,
              "z": -1.6780244851433217
            }
          }
        ],
        "bonds": []
      },
      "vertexId": 10258519,
      "buildingBlockId": 78,
      "buildingBlockType": "FRAGMENT",
      "isRCV": true,
      "properties": {
        "ATTACHMENT_POINTS": "1#ATplus:0:ANY:0.2882%-2.4550%-1.6864 ",
        "OLDVERTEXID": 211
      },
      "uniquefyingPropertyKeys": [],
      "allowedMutationTypes": [
        "DELETE",
        "EXTEND",
        "CHANGEBRANCH",
        "CHANGELINK",
        "ADDLINK",
        "DELETELINK",
        "DELETECHAIN"
      ],
      "vertexType": "MolecularFragment"
    },
    {
      "lstAPs": [
        {
          "id": 17175165,
          "atomPositionNumber": 0,
          "atomPositionNumberInMol": -1,
          "apClass": {
            "rule": "ATplus",
            "subClass": 0,
            "bndTyp": "ANY"
          },
          "dirVec": {
            "x": 0.1328821337280647,
            "y": 2.5088062068851067,
            "z": -2.172170581008468
          }
        }
      ],
      "lstSymAPs": [],
      "mol": {
        "atoms": [
          {
            "elSymbol": "ATP",
            "p3d": {
              "x": 0.13588649661527483,
              "y": 2.5293205804798125,
              "z": -2.168883594598582
            }
          }
        ],
        "bonds": []
      },
      "vertexId": 10258520,
      "buildingBlockId": 78,
      "buildingBlockType": "FRAGMENT",
      "isRCV": true,
      "properties": {
        "ATTACHMENT_POINTS": "1#ATplus:0:ANY:0.1329%2.5088%-2.1722 ",
        "OLDVERTEXID": 212
      },
      "uniquefyingPropertyKeys": [],
      "allowedMutationTypes": [
        "DELETE",
        "EXTEND",
        "CHANGEBRANCH",
        "CHANGELINK",
        "ADDLINK",
        "DELETELINK",
        "DELETECHAIN"
      ],
      "vertexType": "MolecularFragment"
    },
    {
      "lstAPs": [
        {
          "id": 17175166,
          "atomPositionNumber": 0,
          "atomPositionNumberInMol": -1,
          "apClass": {
            "rule": "SubRS",
            "subClass": 1,
            "bndTyp": "SINGLE"
          },
          "dirVec": {
            "x": 0.2865,
            "y": 0.3959,
            "z": -0.6387
          }
        }
      ],
      "lstSymAPs": [],
      "mol": {
        "atoms": [
          {
            "elSymbol": "C",
            "p3d": {
              "x": 0.3969,
              "y": -0.0496,
              "z": 0.8235
            }
          },
          {
            "elSymbol": "H",
            "p3d": {
              "x": -0.6146,
              "y": -0.163,
              "z": 1.2402
            }
          },
          {
            "elSymbol": "H",
            "p3d": {
              "x": 0.9335,
              "y": -0.9979,
              "z": 0.8998
            }
          },
          {
            "elSymbol": "H",
            "p3d": {
              "x": 0.9252,
              "y": 0.7237,
              "z": 1.3995
            }
          }
        ],
        "bonds": [
          {
            "atomIds": [
              0,
              1
            ],
            "bo": "SINGLE"
          },
          {
            "atomIds": [
              0,
              2
            ],
            "bo": "SINGLE"
          },
          {
            "atomIds": [
              0,
              3
            ],
            "bo": "SINGLE"
          }
        ]
      },
      "vertexId": 10258521,
      "buildingBlockId": 23,
      "buildingBlockType": "FRAGMENT",
      "isRCV": false,
      "properties": {
        "ATTACHMENT_POINTS": "1#SubRS:1:SINGLE:0.2865%0.3959%-0.6387 ",
        "OLDVERTEXID": 9290
      },
      "uniquefyingPropertyKeys": [],
      "allowedMutationTypes": [
        "DELETE",
        "EXTEND",
        "CHANGEBRANCH",
        "CHANGELINK",
        "ADDLINK",
        "DELETELINK",
        "DELETECHAIN"
      ],
      "vertexType": "MolecularFragment"
    },
    {
      "lstAPs": [
        {
          "id": 17175167,
          "atomPositionNumber": 0,
          "atomPositionNumberInMol": -1,
          "apClass": {
            "rule": "SubRS",
            "subClass": 1,
            "bndTyp": "SINGLE"
          },
          "dirVec": {
            "x": 0.2865,
            "y": 0.3959,
            "z": -0.6387
          }
        }
      ],
      "lstSymAPs": [],
      "mol": {
        "atoms": [
          {
            "elSymbol": "C",
            "p3d": {
              "x": 0.3969,
              "y": -0.0496,
              "z": 0.8235
            }
          },
          {
            "elSymbol": "H",
            "p3d": {
              "x": -0.6146,
              "y": -0.163,
              "z": 1.2402
            }
          },
          {
            "elSymbol": "H",
            "p3d": {
              "x": 0.9335,
              "y": -0.9979,
              "z": 0.8998
            }
          },
          {
            "elSymbol": "H",
            "p3d": {
              "x": 0.9252,
              "y": 0.7237,
              "z": 1.3995
            }
          }
        ],
        "bonds": [
          {
            "atomIds": [
              0,
              1
            ],
            "bo": "SINGLE"
          },
          {
            "atomIds": [
              0,
              2
            ],
            "bo": "SINGLE"
          },
          {
            "atomIds": [
              0,
              3
            ],
            "bo": "SINGLE"
          }
        ]
      },
      "vertexId": 10258522,
      "buildingBlockId": 23,
      "buildingBlockType": "FRAGMENT",
      "isRCV": false,
      "properties": {
        "ATTACHMENT_POINTS": "1#SubRS:1:SINGLE:0.2865%0.3959%-0.6387 ",
        "OLDVERTEXID": 9367
      },
      "uniquefyingPropertyKeys": [],
      "allowedMutationTypes": [
        "DELETE",
        "EXTEND",
        "CHANGEBRANCH",
        "CHANGELINK",
        "ADDLINK",
        "DELETELINK",
        "DELETECHAIN"
      ],
      "vertexType": "MolecularFragment"
    },
    {
      "lstAPs": [
        {
          "id": 17175168,
          "atomPositionNumber": 0,
          "atomPositionNumberInMol": -1,
          "apClass": {
            "rule": "Xlig",
            "subClass": 1,
            "bndTyp": "SINGLE"
          },
          "dirVec": {
            "x": -0.102,
            "y": 0.0185,
            "z": -1.0265
          }
        },
        {
          "id": 17175169,
          "atomPositionNumber": 0,
          "atomPositionNumberInMol": -1,
          "apClass": {
            "rule": "bridge",
            "subClass": 1,
            "bndTyp": "SINGLE"
          },
          "dirVec": {
            "x": -0.626,
            "y": 2.4866,
            "z": 0.7805
          }
        }
      ],
      "lstSymAPs": [],
      "mol": {
        "atoms": [
          {
            "elSymbol": "S",
            "p3d": {
              "x": -0.3267,
              "y": 2.3403,
              "z": -1.0022
            }
          }
        ],
        "bonds": []
      },
      "vertexId": 10258523,
      "buildingBlockId": 73,
      "buildingBlockType": "FRAGMENT",
      "isRCV": false,
      "properties": {
        "ATTACHMENT_POINTS": "1#Xlig:1:SINGLE:-0.1020%0.0185%-1.0265,bridge:1:SINGLE:-0.6260%2.4866%0.7805 ",
        "OLDVERTEXID": 9283
      },
      "uniquefyingPropertyKeys": [],
      "allowedMutationTypes": [
        "DELETE",
        "EXTEND",
        "CHANGEBRANCH",
        "CHANGELINK",
        "ADDLINK",
        "DELETELINK",
        "DELETECHAIN"
      ],
      "vertexType": "MolecularFragment"
    },
    {
      "lstAPs": [
        {
          "id": 17175170,
          "atomPositionNumber": 0,
          "atomPositionNumberInMol": -1,
          "apClass": {
            "rule": "Xlig",
            "subClass": 1,
            "bndTyp": "SINGLE"
          },
          "dirVec": {
            "x": -0.102,
            "y": 0.0185,
            "z": -1.0265
          }
        },
        {
          "id": 17175171,
          "atomPositionNumber": 0,
          "atomPositionNumberInMol": -1,
          "apClass": {
            "rule": "bridge",
            "subClass": 1,
            "bndTyp": "SINGLE"
          },
          "dirVec": {
            "x": -0.626,
            "y": 2.4866,
            "z": 0.7805
          }
        }
      ],
      "lstSymAPs": [],
      "mol": {
        "atoms": [
          {
            "elSymbol": "S",
            "p3d": {
              "x": -0.3267,
              "y": 2.3403,
              "z": -1.0022
            }
          }
        ],
        "bonds": []
      },
      "vertexId": 10258524,
      "buildingBlockId": 73,
      "buildingBlockType": "FRAGMENT",
      "isRCV": false,
      "properties": {
        "ATTACHMENT_POINTS": "1#Xlig:1:SINGLE:-0.1020%0.0185%-1.0265,bridge:1:SINGLE:-0.6260%2.4866%0.7805 ",
        "OLDVERTEXID": 9368
      },
      "uniquefyingPropertyKeys": [],
      "allowedMutationTypes": [
        "DELETE",
        "EXTEND",
        "CHANGEBRANCH",
        "CHANGELINK",
        "ADDLINK",
        "DELETELINK",
        "DELETECHAIN"
      ],
      "vertexType": "MolecularFragment"
    },
    {
      "lstAPs": [
        {
          "id": 17175172,
          "atomPositionNumber": 0,
          "atomPositionNumberInMol": -1,
          "apClass": {
            "rule": "bridge",
            "subClass": 0,
            "bndTyp": "SINGLE"
          },
          "dirVec": {
            "x": 2.2309,
            "y": 1.5817,
            "z": 0.6565999999999999
          }
        },
        {
          "id": 17175173,
          "atomPositionNumber": 4,
          "atomPositionNumberInMol": -1,
          "apClass": {
            "rule": "bridge",
            "subClass": 0,
            "bndTyp": "SINGLE"
          },
          "dirVec": {
            "x": 1.1795,
            "y": -0.8206,
            "z": 2.1815
          }
        }
      ],
      "lstSymAPs": [
        {
          "symIds": [
            0,
            1
          ]
        }
      ],
      "mol": {
        "atoms": [
          {
            "elSymbol": "C",
            "p3d": {
              "x": 1.4767,
              "y": 0.4111,
              "z": -0.0358
            }
          },
          {
            "elSymbol": "C",
            "p3d": {
              "x": 0.6064,
              "y": 0.7242,
              "z": -1.2721
            }
          },
          {
            "elSymbol": "C",
            "p3d": {
              "x": -0.3951,
              "y": -0.4594,
              "z": -1.3469
            }
          },
          {
            "elSymbol": "C",
            "p3d": {
              "x": -0.3076,
              "y": -1.2087,
              "z": 0.0097
            }
          },
          {
            "elSymbol": "C",
            "p3d": {
              "x": 0.4613,
              "y": -0.2385,
              "z": 0.9321
            }
          },
          {
            "elSymbol": "H",
            "p3d": {
              "x": 2.2245,
              "y": -0.3328,
              "z": -0.3416
            }
          },
          {
            "elSymbol": "H",
            "p3d": {
              "x": 0.0672,
              "y": 1.6663,
              "z": -1.1316
            }
          },
          {
            "elSymbol": "H",
            "p3d": {
              "x": 1.2126,
              "y": 0.798,
              "z": -2.1799
            }
          },
          {
            "elSymbol": "H",
            "p3d": {
              "x": -0.1332,
              "y": -1.1322,
              "z": -2.1707
            }
          },
          {
            "elSymbol": "H",
            "p3d": {
              "x": -1.4103,
              "y": -0.0853,
              "z": -1.5178
            }
          },
          {
            "elSymbol": "H",
            "p3d": {
              "x": 0.248,
              "y": -2.143,
              "z": -0.114
            }
          },
          {
            "elSymbol": "H",
            "p3d": {
              "x": -1.2998,
              "y": -1.4376,
              "z": 0.4073
            }
          },
          {
            "elSymbol": "H",
            "p3d": {
              "x": -0.2539,
              "y": 0.5182,
              "z": 1.28
            }
          }
        ],
        "bonds": [
          {
            "atomIds": [
              0,
              1
            ],
            "bo": "SINGLE"
          },
          {
            "atomIds": [
              1,
              2
            ],
            "bo": "SINGLE"
          },
          {
            "atomIds": [
              2,
              3
            ],
            "bo": "SINGLE"
          },
          {
            "atomIds": [
              3,
              4
            ],
            "bo": "SINGLE"
          },
          {
            "atomIds": [
              0,
              4
            ],
            "bo": "SINGLE"
          },
          {
            "atomIds": [
              0,
              5
            ],
            "bo": "SINGLE"
          },
          {
            "atomIds": [
              1,
              6
            ],
            "bo": "SINGLE"
          },
          {
            "atomIds": [
              1,
              7
            ],
            "bo": "SINGLE"
          },
          {
            "atomIds": [
              2,
              8
            ],
            "bo": "SINGLE"
          },
          {
            "atomIds": [
              2,
              9
            ],
            "bo": "SINGLE"
          },
          {
            "atomIds": [
              3,
              10
            ],
            "bo": "SINGLE"
          },
          {
            "atomIds": [
              3,
              11
            ],
            "bo": "SINGLE"
          },
          {
            "atomIds": [
              4,
              12
            ],
            "bo": "SINGLE"
          }
        ]
      },
      "vertexId": 10258525,
      "buildingBlockId": 69,
      "buildingBlockType": "FRAGMENT",
      "isRCV": false,
      "properties": {
        "ATTACHMENT_POINTS": "1#bridge:0:SINGLE:2.2309%1.5817%0.6566 5#bridge:0:SINGLE:1.1795%-0.8206%2.1815 ",
        "OLDVERTEXID": 189482
      },
      "uniquefyingPropertyKeys": [],
      "allowedMutationTypes": [
        "DELETE",
        "EXTEND",
        "CHANGEBRANCH",
        "CHANGELINK",
        "ADDLINK",
        "DELETELINK",
        "DELETECHAIN"
      ],
      "vertexType": "MolecularFragment"
    },
    {
      "lstAPs": [
        {
          "id": 17175174,
          "atomPositionNumber": 0,
          "atomPositionNumberInMol": -1,
          "apClass": {
            "rule": "bridge",
            "subClass": 0,
            "bndTyp": "SINGLE"
          },
          "dirVec": {
            "x": 2.2309,
            "y": 1.5817,
            "z": 0.6565999999999999
          }
        },
        {
          "id": 17175175,
          "atomPositionNumber": 4,
          "atomPositionNumberInMol": -1,
          "apClass": {
            "rule": "bridge",
            "subClass": 0,
            "bndTyp": "SINGLE"
          },
          "dirVec": {
            "x": 1.1795,
            "y": -0.8206,
            "z": 2.1815
          }
        }
      ],
      "lstSymAPs": [
        {
          "symIds": [
            0,
            1
          ]
        }
      ],
      "mol": {
        "atoms": [
          {
            "elSymbol": "C",
            "p3d": {
              "x": 1.4767,
              "y": 0.4111,
              "z": -0.0358
            }
          },
          {
            "elSymbol": "C",
            "p3d": {
              "x": 0.6064,
              "y": 0.7242,
              "z": -1.2721
            }
          },
          {
            "elSymbol": "C",
            "p3d": {
              "x": -0.3951,
              "y": -0.4594,
              "z": -1.3469
            }
          },
          {
            "elSymbol": "C",
            "p3d": {
              "x": -0.3076,
              "y": -1.2087,
              "z": 0.0097
            }
          },
          {
            "elSymbol": "C",
            "p3d": {
              "x": 0.4613,
              "y": -0.2385,
              "z": 0.9321
            }
          },
          {
            "elSymbol": "H",
            "p3d": {
              "x": 2.2245,
              "y": -0.3328,
              "z": -0.3416
            }
          },
          {
            "elSymbol": "H",
            "p3d": {
              "x": 0.0672,
              "y": 1.6663,
              "z": -1.1316
            }
          },
          {
            "elSymbol": "H",
            "p3d": {
              "x": 1.2126,
              "y": 0.798,
              "z": -2.1799
            }
          },
          {
            "elSymbol": "H",
            "p3d": {
              "x": -0.1332,
              "y": -1.1322,
              "z": -2.1707
            }
          },
          {
            "elSymbol": "H",
            "p3d": {
              "x": -1.4103,
              "y": -0.0853,
              "z": -1.5178
            }
          },
          {
            "elSymbol": "H",
            "p3d": {
              "x": 0.248,
              "y": -2.143,
              "z": -0.114
            }
          },
          {
            "elSymbol": "H",
            "p3d": {
              "x": -1.2998,
              "y": -1.4376,
              "z": 0.4073
            }
          },
          {
            "elSymbol": "H",
            "p3d": {
              "x": -0.2539,
              "y": 0.5182,
              "z": 1.28
            }
          }
        ],
        "bonds": [
          {
            "atomIds": [
              0,
              1
            ],
            "bo": "SINGLE"
          },
          {
            "atomIds": [
              1,
              2
            ],
            "bo": "SINGLE"
          },
          {
            "atomIds": [
              2,
              3
            ],
            "bo": "SINGLE"
          },
          {
            "atomIds": [
              3,
              4
            ],
            "bo": "SINGLE"
          },
          {
            "atomIds": [
              0,
              4
            ],
            "bo": "SINGLE"
          },
          {
            "atomIds": [
              0,
              5
            ],
            "bo": "SINGLE"
          },
          {
            "atomIds": [
              1,
              6
            ],
            "bo": "SINGLE"
          },
          {
            "atomIds": [
              1,
              7
            ],
            "bo": "SINGLE"
          },
          {
            "atomIds": [
              2,
              8
            ],
            "bo": "SINGLE"
          },
          {
            "atomIds": [
              2,
              9
            ],
            "bo": "SINGLE"
          },
          {
            "atomIds": [
              3,
              10
            ],
            "bo": "SINGLE"
          },
          {
            "atomIds": [
              3,
              11
            ],
            "bo": "SINGLE"
          },
          {
            "atomIds": [
              4,
              12
            ],
            "bo": "SINGLE"
          }
        ]
      },
      "vertexId": 10258526,
      "buildingBlockId": 69,
      "buildingBlockType": "FRAGMENT",
      "isRCV": false,
      "properties": {
        "ATTACHMENT_POINTS": "1#bridge:0:SINGLE:2.2309%1.5817%0.6566 5#bridge:0:SINGLE:1.1795%-0.8206%2.1815 ",
        "OLDVERTEXID": 189305
      },
      "uniquefyingPropertyKeys": [],
      "allowedMutationTypes": [
        "DELETE",
        "EXTEND",
        "CHANGEBRANCH",
        "CHANGELINK",
        "ADDLINK",
        "DELETELINK",
        "DELETECHAIN"
      ],
      "vertexType": "MolecularFragment"
    },
    {
      "lstAPs": [
        {
          "id": 17175176,
          "atomPositionNumber": 0,
          "atomPositionNumberInMol": -1,
          "apClass": {
            "rule": "ATminus",
            "subClass": 0,
            "bndTyp": "ANY"
          },
          "dirVec": {
            "x": 0.0109,
            "y": -0.0071,
            "z": 0.0026
          }
        }
      ],
      "lstSymAPs": [],
      "mol": {
        "atoms": [
          {
            "elSymbol": "ATM",
            "p3d": {
              "x": -0.0096,
              "y": 0.0045,
              "z": -0.0011
            }
          }
        ],
        "bonds": []
      },
      "vertexId": 10258527,
      "buildingBlockId": 79,
      "buildingBlockType": "FRAGMENT",
      "isRCV": true,
      "properties": {
        "ATTACHMENT_POINTS": "1#ATminus:0:ANY:0.0109%-0.0071%0.0026 ",
        "OLDVERTEXID": 10258412
      },
      "uniquefyingPropertyKeys": [],
      "allowedMutationTypes": [
        "DELETE",
        "EXTEND",
        "CHANGEBRANCH",
        "CHANGELINK",
        "ADDLINK",
        "DELETELINK",
        "DELETECHAIN"
      ],
      "vertexType": "MolecularFragment"
    },
    {
      "lstAPs": [
        {
          "id": 17175177,
          "atomPositionNumber": 0,
          "atomPositionNumberInMol": -1,
          "apClass": {
            "rule": "ATminus",
            "subClass": 0,
            "bndTyp": "ANY"
          },
          "dirVec": {
            "x": 0.0109,
            "y": -0.0071,
            "z": 0.0026
          }
        }
      ],
      "lstSymAPs": [],
      "mol": {
        "atoms": [
          {
            "elSymbol": "ATM",
            "p3d": {
              "x": -0.0096,
              "y": 0.0045,
              "z": -0.0011
            }
          }
        ],
        "bonds": []
      },
      "vertexId": 10258528,
      "buildingBlockId": 79,
      "buildingBlockType": "FRAGMENT",
      "isRCV": true,
      "properties": {
        "ATTACHMENT_POINTS": "1#ATminus:0:ANY:0.0109%-0.0071%0.0026 ",
        "OLDVERTEXID": 10258430
      },
      "uniquefyingPropertyKeys": [],
      "allowedMutationTypes": [
        "DELETE",
        "EXTEND",
        "CHANGEBRANCH",
        "CHANGELINK",
        "ADDLINK",
        "DELETELINK",
        "DELETECHAIN"
      ],
      "vertexType": "MolecularFragment"
    }
  ],
  "gEdges": [
    {
      "srcAPID": 17175158,
      "trgAPID": 17175161,
      "bondType": "SINGLE"
    },
    {
      "srcAPID": 17175159,
      "trgAPID": 17175164,
      "bondType": "SINGLE"
    },
    {
      "srcAPID": 17175160,
      "trgAPID": 17175165,
      "bondType": "SINGLE"
    },
    {
      "srcAPID": 17175162,
      "trgAPID": 17175166,
      "bondType": "SINGLE"
    },
    {
      "srcAPID": 17175163,
      "trgAPID": 17175167,
      "bondType": "SINGLE"
    },
    {
      "srcAPID": 17175156,
      "trgAPID": 17175168,
      "bondType": "SINGLE"
    },
    {
      "srcAPID": 17175157,
      "trgAPID": 17175170,
      "bondType": "SINGLE"
    },
    {
      "srcAPID": 17175171,
      "trgAPID": 17175172,
      "bondType": "SINGLE"
    },
    {
      "srcAPID": 17175169,
      "trgAPID": 17175174,
      "bondType": "SINGLE"
    },
    {
      "srcAPID": 17175173,
      "trgAPID": 17175176,
      "bondType": "SINGLE"
    },
    {
      "srcAPID": 17175175,
      "trgAPID": 17175177,
      "bondType": "SINGLE"
    }
  ],
  "gRings": [
    {
      "vertices": [
        10258519,
        10258518,
        10258517,
        10258523,
        10258526,
        10258528
      ],
      "bndTyp": "SINGLE"
    },
    {
      "vertices": [
        10258520,
        10258518,
        10258517,
        10258524,
        10258525,
        10258527
      ],
      "bndTyp": "SINGLE"
    }
  ],
  "symVertices": [
    {
      "symIds": [
        10258519,
        10258520
      ]
    },
    {
      "symIds": [
        10258523,
        10258524
      ]
    },
    {
      "symIds": [
        10258521,
        10258522
      ]
    },
    {
      "symIds": [
        10258525,
        10258526
      ]
    },
    {
      "symIds": [
        10258527,
        10258528
      ]
    }
  ]
}

> <SMILES>
[Pt]12(C#O)[C]3N(C(C(N3C4(C(C(C(C4([H])S1)([H])[H])([H])[H])([H])[H])[H])([H])[H])(C([H])([H])[H])C([H])([H])[H])C5(C(C(C(C5([H])S2)([H])[H])([H])[H])([H])[H])[H]

$$$$
