M30083301
  CDK     05082206183D

 46 50  0  0  0  0  0  0  0  0999 V2000
    2.4441   -0.1904    0.0020 Pt  0  0  0  0  0  0  0  0  0  0  0  0
    4.3769   -0.1549    0.0472 C   0  0  0  0  0  0  0  0  0  0  0  0
    5.5188   -0.1325    0.0788 O   0  0  0  0  0  0  0  0  0  0  0  0
   -0.3595    0.8435    0.2391 N   0  0  1  0  0  0  0  0  0  0  0  0
   -0.2891   -1.3307   -0.3105 N   0  0  1  0  0  0  0  0  0  0  0  0
    0.4446   -0.2243   -0.0246 C   0  0  2  0  0  0  0  0  0  0  0  0
   -1.8304    0.4783    0.1625 C   0  0  0  0  0  0  0  0  0  0  0  0
   -1.7532   -1.0540   -0.2301 C   0  0  0  0  0  0  0  0  0  0  0  0
   -2.2409   -1.2597   -1.2044 H   0  0  0  0  0  0  0  0  0  0  0  0
   -2.2284   -1.7018    0.5323 H   0  0  0  0  0  0  0  0  0  0  0  0
   -2.5173    1.2949   -0.9284 C   0  0  0  0  0  0  0  0  0  0  0  0
   -3.5543    0.9710   -1.0790 H   0  0  0  0  0  0  0  0  0  0  0  0
   -2.5512    2.3634   -0.6812 H   0  0  0  0  0  0  0  0  0  0  0  0
   -2.0008    1.2075   -1.8951 H   0  0  0  0  0  0  0  0  0  0  0  0
   -2.4956    0.6679    1.5207 C   0  0  0  0  0  0  0  0  0  0  0  0
   -1.9646    0.1255    2.3176 H   0  0  0  0  0  0  0  0  0  0  0  0
   -2.4994    1.7227    1.8294 H   0  0  0  0  0  0  0  0  0  0  0  0
   -3.5361    0.3260    1.5165 H   0  0  0  0  0  0  0  0  0  0  0  0
    2.6775   -0.8479   -2.2129 S   0  0  0  0  0  0  0  0  0  0  0  0
    0.3421   -2.6156   -0.6844 C   0  0  0  0  0  0  0  0  0  0  0  0
    0.5231   -2.7013   -2.1781 C   0  0  0  0  0  0  0  0  0  0  0  0
   -0.3269   -3.5642   -2.8978 C   0  0  0  0  0  0  0  0  0  0  0  0
   -0.2053   -3.6969   -4.2779 C   0  0  0  0  0  0  0  0  0  0  0  0
    0.7707   -2.9593   -4.9643 C   0  0  0  0  0  0  0  0  0  0  0  0
    1.6125   -2.0979   -4.2667 C   0  0  0  0  0  0  0  0  0  0  0  0
    1.4917   -1.9667   -2.8700 C   0  0  0  0  0  0  0  0  0  0  0  0
    1.3357   -2.6889   -0.1619 H   0  0  0  0  0  0  0  0  0  0  0  0
   -0.2788   -3.4546   -0.2956 H   0  0  0  0  0  0  0  0  0  0  0  0
   -1.0839   -4.1399   -2.3677 H   0  0  0  0  0  0  0  0  0  0  0  0
   -0.8615   -4.3706   -4.8246 H   0  0  0  0  0  0  0  0  0  0  0  0
    0.8691   -3.0620   -6.0442 H   0  0  0  0  0  0  0  0  0  0  0  0
    2.3694   -1.5250   -4.8087 H   0  0  0  0  0  0  0  0  0  0  0  0
    2.4944    0.4158    2.2388 S   0  0  0  0  0  0  0  0  0  0  0  0
    0.2274    2.1626    0.5698 C   0  0  0  0  0  0  0  0  0  0  0  0
    0.4133    2.3434    2.0546 C   0  0  0  0  0  0  0  0  0  0  0  0
   -0.4029    3.2887    2.7082 C   0  0  0  0  0  0  0  0  0  0  0  0
   -0.2684    3.5272    4.0725 C   0  0  0  0  0  0  0  0  0  0  0  0
    0.6907    2.8183    4.8111 C   0  0  0  0  0  0  0  0  0  0  0  0
    1.5032    1.8817    4.1794 C   0  0  0  0  0  0  0  0  0  0  0  0
    1.3673    1.6420    2.7981 C   0  0  0  0  0  0  0  0  0  0  0  0
    1.2185    2.2513    0.0447 H   0  0  0  0  0  0  0  0  0  0  0  0
   -0.4240    2.9592    0.1416 H   0  0  0  0  0  0  0  0  0  0  0  0
   -1.1432    3.8471    2.1372 H   0  0  0  0  0  0  0  0  0  0  0  0
   -0.8998    4.2624    4.5664 H   0  0  0  0  0  0  0  0  0  0  0  0
    0.8005    3.0041    5.8787 H   0  0  0  0  0  0  0  0  0  0  0  0
    2.2500    1.3348    4.7607 H   0  0  0  0  0  0  0  0  0  0  0  0
  2  3  3  0  0  0  0
  1  2  1  0  0  0  0
  4  6  1  0  0  0  0
  5  6  1  0  0  0  0
  7  4  1  0  0  0  0
  7  8  1  0  0  0  0
  8  5  1  0  0  0  0
  9  8  1  0  0  0  0
 10  8  1  0  0  0  0
  1  6  1  0  0  0  0
 11 12  1  0  0  0  0
 11 13  1  0  0  0  0
 11 14  1  0  0  0  0
  7 11  1  0  0  0  0
 15 16  1  0  0  0  0
 15 17  1  0  0  0  0
 15 18  1  0  0  0  0
  7 15  1  0  0  0  0
  1 19  1  0  0  0  0
 20 21  1  0  0  0  0
 21 22  1  0  0  0  0
 22 23  2  0  0  0  0
 23 24  1  0  0  0  0
 24 25  2  0  0  0  0
 25 26  1  0  0  0  0
 21 26  2  0  0  0  0
 20 27  1  0  0  0  0
 20 28  1  0  0  0  0
 22 29  1  0  0  0  0
 23 30  1  0  0  0  0
 24 31  1  0  0  0  0
 25 32  1  0  0  0  0
 19 26  1  0  0  0  0
  1 33  1  0  0  0  0
 34 35  1  0  0  0  0
 35 36  1  0  0  0  0
 36 37  2  0  0  0  0
 37 38  1  0  0  0  0
 38 39  2  0  0  0  0
 39 40  1  0  0  0  0
 35 40  2  0  0  0  0
 34 41  1  0  0  0  0
 34 42  1  0  0  0  0
 36 43  1  0  0  0  0
 37 44  1  0  0  0  0
 38 45  1  0  0  0  0
 39 46  1  0  0  0  0
 33 40  1  0  0  0  0
  5 20  1  0  0  0  0
  4 34  1  0  0  0  0
M  END
> <PM6_ENERGY>
176.622

> <UID>
PLXAUGIJSSLIBQ-SMADUUNLNA-L

> <FITNESS>
1.14256

> <GCODE>
185399

> <GraphENC>
185399 10250773_1_0,10250774_61_1,10250775_79_1,10250776_79_1,10250777_24_1,10250778_24_1,10250779_74_1,10250780_74_1,10250781_68_1,10250782_68_1,10250783_80_1,10250784_80_1, 10250773_2_10250774_2_SINGLE_scaff:0_MImidazolidinylidene:1,10250774_0_10250775_0_SINGLE_LImidazolidinylideneSubNL:0_ATplus:0,10250774_1_10250776_0_SINGLE_LImidazolidinylideneSubNL:0_ATplus:0,10250774_3_10250777_0_SINGLE_LImidazolidinylideneSubCS:0_SubRS:1,10250774_4_10250778_0_SINGLE_LImidazolidinylideneSubCS:0_SubRS:1,10250773_0_10250779_0_SINGLE_Xlig:0_Xlig:1,10250773_1_10250780_0_SINGLE_Xlig:0_Xlig:1,10250779_1_10250781_1_SINGLE_bridge:1_bridge:0,10250780_1_10250782_1_SINGLE_bridge:1_bridge:0,10250782_0_10250783_0_SINGLE_bridge:0_ATminus:0,10250781_0_10250784_0_SINGLE_bridge:0_ATminus:0, DENOPTIMRing [vertices=[10250775_79_1, 10250774_61_1, 10250773_1_0, 10250780_74_1, 10250782_68_1, 10250783_80_1]] DENOPTIMRing [vertices=[10250776_79_1, 10250774_61_1, 10250773_1_0, 10250779_74_1, 10250781_68_1, 10250784_80_1]] SymmetricSet [symIds=[10250775, 10250776]] SymmetricSet [symIds=[10250779, 10250780]] SymmetricSet [symIds=[10250777, 10250778]] SymmetricSet [symIds=[10250781, 10250782]] SymmetricSet [symIds=[10250783, 10250784]] 

> <GraphJson>
{
  "graphId": 185399,
  "gVertices": [
    {
      "lstAPs": [
        {
          "id": 17162136,
          "atomPositionNumber": 0,
          "atomPositionNumberInMol": -1,
          "apClass": {
            "rule": "Xlig",
            "subClass": 0,
            "bndTyp": "SINGLE"
          },
          "dirVec": {
            "x": -2.3339,
            "y": -0.0087,
            "z": 0.8172
          }
        },
        {
          "id": 17162137,
          "atomPositionNumber": 0,
          "atomPositionNumberInMol": -1,
          "apClass": {
            "rule": "Xlig",
            "subClass": 0,
            "bndTyp": "SINGLE"
          },
          "dirVec": {
            "x": 2.336,
            "y": -5.0E-4,
            "z": 0.829
          }
        },
        {
          "id": 17162138,
          "atomPositionNumber": 0,
          "atomPositionNumberInMol": -1,
          "apClass": {
            "rule": "scaff",
            "subClass": 0,
            "bndTyp": "SINGLE"
          },
          "dirVec": {
            "x": -0.0095,
            "y": 0.0046,
            "z": -1.7113
          }
        }
      ],
      "lstSymAPs": [
        {
          "symIds": [
            0,
            1
          ]
        }
      ],
      "mol": {
        "atoms": [
          {
            "elSymbol": "Pt",
            "p3d": {
              "x": -0.0098,
              "y": 0.0049,
              "z": 0.6289
            }
          },
          {
            "elSymbol": "C",
            "p3d": {
              "x": -6.0E-4,
              "y": 0.0016,
              "z": 2.5609
            }
          },
          {
            "elSymbol": "O",
            "p3d": {
              "x": 0.0025,
              "y": -0.0041,
              "z": 3.6974
            }
          },
          {
            "elSymbol": "Du",
            "p3d": {
              "x": -0.007,
              "y": 1.0013,
              "z": 0.6372
            }
          },
          {
            "elSymbol": "Du",
            "p3d": {
              "x": -0.0014,
              "y": 0.9902,
              "z": 2.5698
            }
          }
        ],
        "bonds": [
          {
            "atomIds": [
              1,
              2
            ],
            "bo": "TRIPLE"
          },
          {
            "atomIds": [
              0,
              1
            ],
            "bo": "SINGLE"
          },
          {
            "atomIds": [
              3,
              0
            ],
            "bo": "SINGLE"
          },
          {
            "atomIds": [
              4,
              1
            ],
            "bo": "SINGLE"
          }
        ]
      },
      "vertexId": 10250773,
      "buildingBlockId": 0,
      "buildingBlockType": "SCAFFOLD",
      "isRCV": false,
      "properties": {
        "ATTACHMENT_POINTS": "1#Xlig:0:SINGLE:-2.3339%-0.0087%0.8172,Xlig:0:SINGLE:2.3360%-0.0005%0.8290,scaff:0:SINGLE:-0.0095%0.0046%-1.7113 ",
        "OLDVERTEXID": 209
      },
      "uniquefyingPropertyKeys": [],
      "allowedMutationTypes": [
        "DELETE",
        "EXTEND",
        "CHANGEBRANCH",
        "CHANGELINK",
        "ADDLINK",
        "DELETELINK",
        "DELETECHAIN"
      ],
      "vertexType": "MolecularFragment"
    },
    {
      "lstAPs": [
        {
          "id": 17162139,
          "atomPositionNumber": 0,
          "atomPositionNumberInMol": -1,
          "apClass": {
            "rule": "LImidazolidinylideneSubNL",
            "subClass": 0,
            "bndTyp": "SINGLE"
          },
          "dirVec": {
            "x": 0.2882482759260379,
            "y": -2.4550195985517003,
            "z": -1.6863516588387322
          }
        },
        {
          "id": 17162140,
          "atomPositionNumber": 1,
          "atomPositionNumberInMol": -1,
          "apClass": {
            "rule": "LImidazolidinylideneSubNL",
            "subClass": 0,
            "bndTyp": "SINGLE"
          },
          "dirVec": {
            "x": 0.1328821337280647,
            "y": 2.5088062068851067,
            "z": -2.172170581008468
          }
        },
        {
          "id": 17162141,
          "atomPositionNumber": 2,
          "atomPositionNumberInMol": -1,
          "apClass": {
            "rule": "MImidazolidinylidene",
            "subClass": 1,
            "bndTyp": "SINGLE"
          },
          "dirVec": {
            "x": -0.00977984519430624,
            "y": 0.004879845194306149,
            "z": 0.47167907905161655
          }
        },
        {
          "id": 17162142,
          "atomPositionNumber": 3,
          "atomPositionNumberInMol": -1,
          "apClass": {
            "rule": "LImidazolidinylideneSubCS",
            "subClass": 0,
            "bndTyp": "SINGLE"
          },
          "dirVec": {
            "x": -0.9952052299975417,
            "y": -1.6236459098745568,
            "z": -4.489065505792757
          }
        },
        {
          "id": 17162143,
          "atomPositionNumber": 3,
          "atomPositionNumberInMol": -1,
          "apClass": {
            "rule": "LImidazolidinylideneSubCS",
            "subClass": 0,
            "bndTyp": "SINGLE"
          },
          "dirVec": {
            "x": 1.4957057023199845,
            "y": -1.3536466985452669,
            "z": -4.280442177416974
          }
        }
      ],
      "lstSymAPs": [
        {
          "symIds": [
            0,
            1
          ]
        },
        {
          "symIds": [
            3,
            4
          ]
        }
      ],
      "mol": {
        "atoms": [
          {
            "elSymbol": "N",
            "p3d": {
              "x": 0.03578295116087008,
              "y": -1.1405070380389195,
              "z": -2.2647794313785288
            }
          },
          {
            "elSymbol": "N",
            "p3d": {
              "x": -0.08216887436027295,
              "y": 1.0403961354443017,
              "z": -2.407451659744955
            }
          },
          {
            "elSymbol": "C",
            "p3d": {
              "x": -0.009520154805693761,
              "y": 0.004620154805693851,
              "z": -1.5540790790516166
            }
          },
          {
            "elSymbol": "C",
            "p3d": {
              "x": 0.1388379340141097,
              "y": -0.9112501764285554,
              "z": -3.7221273589214623
            }
          },
          {
            "elSymbol": "C",
            "p3d": {
              "x": -0.06411788260394655,
              "y": 0.5954250999692482,
              "z": -3.810957184951348
            }
          },
          {
            "elSymbol": "H",
            "p3d": {
              "x": -0.9982511685081745,
              "y": 0.814350519948595,
              "z": -4.309516514071401
            }
          },
          {
            "elSymbol": "H",
            "p3d": {
              "x": 0.7198692778677406,
              "y": 1.0817584578440065,
              "z": -4.372236658327848
            }
          }
        ],
        "bonds": [
          {
            "atomIds": [
              0,
              2
            ],
            "bo": "SINGLE"
          },
          {
            "atomIds": [
              1,
              2
            ],
            "bo": "SINGLE"
          },
          {
            "atomIds": [
              3,
              0
            ],
            "bo": "SINGLE"
          },
          {
            "atomIds": [
              3,
              4
            ],
            "bo": "SINGLE"
          },
          {
            "atomIds": [
              4,
              1
            ],
            "bo": "SINGLE"
          },
          {
            "atomIds": [
              5,
              4
            ],
            "bo": "SINGLE"
          },
          {
            "atomIds": [
              6,
              4
            ],
            "bo": "SINGLE"
          }
        ]
      },
      "vertexId": 10250774,
      "buildingBlockId": 60,
      "buildingBlockType": "FRAGMENT",
      "isRCV": false,
      "properties": {
        "ATTACHMENT_POINTS": "1#LImidazolidinylideneSubNL:0:SINGLE:0.2882%-2.4550%-1.6864 2#LImidazolidinylideneSubNL:0:SINGLE:0.1329%2.5088%-2.1722 3#MImidazolidinylidene:1:SINGLE:-0.0098%0.0049%0.4717 4#LImidazolidinylideneSubCS:0:SINGLE:-0.9952%-1.6236%-4.4891,LImidazolidinylideneSubCS:0:SINGLE:1.4957%-1.3536%-4.2804 ",
        "OLDVERTEXID": 210
      },
      "uniquefyingPropertyKeys": [],
      "allowedMutationTypes": [
        "DELETE",
        "EXTEND",
        "CHANGEBRANCH",
        "CHANGELINK",
        "ADDLINK",
        "DELETELINK",
        "DELETECHAIN"
      ],
      "vertexType": "MolecularFragment"
    },
    {
      "lstAPs": [
        {
          "id": 17162144,
          "atomPositionNumber": 0,
          "atomPositionNumberInMol": -1,
          "apClass": {
            "rule": "ATplus",
            "subClass": 0,
            "bndTyp": "ANY"
          },
          "dirVec": {
            "x": 0.2882482759260379,
            "y": -2.4550195985517003,
            "z": -1.6863516588387322
          }
        }
      ],
      "lstSymAPs": [],
      "mol": {
        "atoms": [
          {
            "elSymbol": "ATP",
            "p3d": {
              "x": 0.29188282238316376,
              "y": -2.473943611083335,
              "z": -1.6780244851433217
            }
          }
        ],
        "bonds": []
      },
      "vertexId": 10250775,
      "buildingBlockId": 78,
      "buildingBlockType": "FRAGMENT",
      "isRCV": true,
      "properties": {
        "ATTACHMENT_POINTS": "1#ATplus:0:ANY:0.2882%-2.4550%-1.6864 ",
        "OLDVERTEXID": 211
      },
      "uniquefyingPropertyKeys": [],
      "allowedMutationTypes": [
        "DELETE",
        "EXTEND",
        "CHANGEBRANCH",
        "CHANGELINK",
        "ADDLINK",
        "DELETELINK",
        "DELETECHAIN"
      ],
      "vertexType": "MolecularFragment"
    },
    {
      "lstAPs": [
        {
          "id": 17162145,
          "atomPositionNumber": 0,
          "atomPositionNumberInMol": -1,
          "apClass": {
            "rule": "ATplus",
            "subClass": 0,
            "bndTyp": "ANY"
          },
          "dirVec": {
            "x": 0.1328821337280647,
            "y": 2.5088062068851067,
            "z": -2.172170581008468
          }
        }
      ],
      "lstSymAPs": [],
      "mol": {
        "atoms": [
          {
            "elSymbol": "ATP",
            "p3d": {
              "x": 0.13588649661527483,
              "y": 2.5293205804798125,
              "z": -2.168883594598582
            }
          }
        ],
        "bonds": []
      },
      "vertexId": 10250776,
      "buildingBlockId": 78,
      "buildingBlockType": "FRAGMENT",
      "isRCV": true,
      "properties": {
        "ATTACHMENT_POINTS": "1#ATplus:0:ANY:0.1329%2.5088%-2.1722 ",
        "OLDVERTEXID": 212
      },
      "uniquefyingPropertyKeys": [],
      "allowedMutationTypes": [
        "DELETE",
        "EXTEND",
        "CHANGEBRANCH",
        "CHANGELINK",
        "ADDLINK",
        "DELETELINK",
        "DELETECHAIN"
      ],
      "vertexType": "MolecularFragment"
    },
    {
      "lstAPs": [
        {
          "id": 17162146,
          "atomPositionNumber": 0,
          "atomPositionNumberInMol": -1,
          "apClass": {
            "rule": "SubRS",
            "subClass": 1,
            "bndTyp": "SINGLE"
          },
          "dirVec": {
            "x": 0.2865,
            "y": 0.3959,
            "z": -0.6387
          }
        }
      ],
      "lstSymAPs": [],
      "mol": {
        "atoms": [
          {
            "elSymbol": "C",
            "p3d": {
              "x": 0.3969,
              "y": -0.0496,
              "z": 0.8235
            }
          },
          {
            "elSymbol": "H",
            "p3d": {
              "x": -0.6146,
              "y": -0.163,
              "z": 1.2402
            }
          },
          {
            "elSymbol": "H",
            "p3d": {
              "x": 0.9335,
              "y": -0.9979,
              "z": 0.8998
            }
          },
          {
            "elSymbol": "H",
            "p3d": {
              "x": 0.9252,
              "y": 0.7237,
              "z": 1.3995
            }
          }
        ],
        "bonds": [
          {
            "atomIds": [
              0,
              1
            ],
            "bo": "SINGLE"
          },
          {
            "atomIds": [
              0,
              2
            ],
            "bo": "SINGLE"
          },
          {
            "atomIds": [
              0,
              3
            ],
            "bo": "SINGLE"
          }
        ]
      },
      "vertexId": 10250777,
      "buildingBlockId": 23,
      "buildingBlockType": "FRAGMENT",
      "isRCV": false,
      "properties": {
        "ATTACHMENT_POINTS": "1#SubRS:1:SINGLE:0.2865%0.3959%-0.6387 ",
        "OLDVERTEXID": 9290
      },
      "uniquefyingPropertyKeys": [],
      "allowedMutationTypes": [
        "DELETE",
        "EXTEND",
        "CHANGEBRANCH",
        "CHANGELINK",
        "ADDLINK",
        "DELETELINK",
        "DELETECHAIN"
      ],
      "vertexType": "MolecularFragment"
    },
    {
      "lstAPs": [
        {
          "id": 17162147,
          "atomPositionNumber": 0,
          "atomPositionNumberInMol": -1,
          "apClass": {
            "rule": "SubRS",
            "subClass": 1,
            "bndTyp": "SINGLE"
          },
          "dirVec": {
            "x": 0.2865,
            "y": 0.3959,
            "z": -0.6387
          }
        }
      ],
      "lstSymAPs": [],
      "mol": {
        "atoms": [
          {
            "elSymbol": "C",
            "p3d": {
              "x": 0.3969,
              "y": -0.0496,
              "z": 0.8235
            }
          },
          {
            "elSymbol": "H",
            "p3d": {
              "x": -0.6146,
              "y": -0.163,
              "z": 1.2402
            }
          },
          {
            "elSymbol": "H",
            "p3d": {
              "x": 0.9335,
              "y": -0.9979,
              "z": 0.8998
            }
          },
          {
            "elSymbol": "H",
            "p3d": {
              "x": 0.9252,
              "y": 0.7237,
              "z": 1.3995
            }
          }
        ],
        "bonds": [
          {
            "atomIds": [
              0,
              1
            ],
            "bo": "SINGLE"
          },
          {
            "atomIds": [
              0,
              2
            ],
            "bo": "SINGLE"
          },
          {
            "atomIds": [
              0,
              3
            ],
            "bo": "SINGLE"
          }
        ]
      },
      "vertexId": 10250778,
      "buildingBlockId": 23,
      "buildingBlockType": "FRAGMENT",
      "isRCV": false,
      "properties": {
        "ATTACHMENT_POINTS": "1#SubRS:1:SINGLE:0.2865%0.3959%-0.6387 ",
        "OLDVERTEXID": 9367
      },
      "uniquefyingPropertyKeys": [],
      "allowedMutationTypes": [
        "DELETE",
        "EXTEND",
        "CHANGEBRANCH",
        "CHANGELINK",
        "ADDLINK",
        "DELETELINK",
        "DELETECHAIN"
      ],
      "vertexType": "MolecularFragment"
    },
    {
      "lstAPs": [
        {
          "id": 17162148,
          "atomPositionNumber": 0,
          "atomPositionNumberInMol": -1,
          "apClass": {
            "rule": "Xlig",
            "subClass": 1,
            "bndTyp": "SINGLE"
          },
          "dirVec": {
            "x": -0.102,
            "y": 0.0185,
            "z": -1.0265
          }
        },
        {
          "id": 17162149,
          "atomPositionNumber": 0,
          "atomPositionNumberInMol": -1,
          "apClass": {
            "rule": "bridge",
            "subClass": 1,
            "bndTyp": "SINGLE"
          },
          "dirVec": {
            "x": -0.626,
            "y": 2.4866,
            "z": 0.7805
          }
        }
      ],
      "lstSymAPs": [],
      "mol": {
        "atoms": [
          {
            "elSymbol": "S",
            "p3d": {
              "x": -0.3267,
              "y": 2.3403,
              "z": -1.0022
            }
          }
        ],
        "bonds": []
      },
      "vertexId": 10250779,
      "buildingBlockId": 73,
      "buildingBlockType": "FRAGMENT",
      "isRCV": false,
      "properties": {
        "ATTACHMENT_POINTS": "1#Xlig:1:SINGLE:-0.1020%0.0185%-1.0265,bridge:1:SINGLE:-0.6260%2.4866%0.7805 ",
        "OLDVERTEXID": 9283
      },
      "uniquefyingPropertyKeys": [],
      "allowedMutationTypes": [
        "DELETE",
        "EXTEND",
        "CHANGEBRANCH",
        "CHANGELINK",
        "ADDLINK",
        "DELETELINK",
        "DELETECHAIN"
      ],
      "vertexType": "MolecularFragment"
    },
    {
      "lstAPs": [
        {
          "id": 17162150,
          "atomPositionNumber": 0,
          "atomPositionNumberInMol": -1,
          "apClass": {
            "rule": "Xlig",
            "subClass": 1,
            "bndTyp": "SINGLE"
          },
          "dirVec": {
            "x": -0.102,
            "y": 0.0185,
            "z": -1.0265
          }
        },
        {
          "id": 17162151,
          "atomPositionNumber": 0,
          "atomPositionNumberInMol": -1,
          "apClass": {
            "rule": "bridge",
            "subClass": 1,
            "bndTyp": "SINGLE"
          },
          "dirVec": {
            "x": -0.626,
            "y": 2.4866,
            "z": 0.7805
          }
        }
      ],
      "lstSymAPs": [],
      "mol": {
        "atoms": [
          {
            "elSymbol": "S",
            "p3d": {
              "x": -0.3267,
              "y": 2.3403,
              "z": -1.0022
            }
          }
        ],
        "bonds": []
      },
      "vertexId": 10250780,
      "buildingBlockId": 73,
      "buildingBlockType": "FRAGMENT",
      "isRCV": false,
      "properties": {
        "ATTACHMENT_POINTS": "1#Xlig:1:SINGLE:-0.1020%0.0185%-1.0265,bridge:1:SINGLE:-0.6260%2.4866%0.7805 ",
        "OLDVERTEXID": 9368
      },
      "uniquefyingPropertyKeys": [],
      "allowedMutationTypes": [
        "DELETE",
        "EXTEND",
        "CHANGEBRANCH",
        "CHANGELINK",
        "ADDLINK",
        "DELETELINK",
        "DELETECHAIN"
      ],
      "vertexType": "MolecularFragment"
    },
    {
      "lstAPs": [
        {
          "id": 17162152,
          "atomPositionNumber": 0,
          "atomPositionNumberInMol": -1,
          "apClass": {
            "rule": "bridge",
            "subClass": 0,
            "bndTyp": "SINGLE"
          },
          "dirVec": {
            "x": -2.5958,
            "y": -0.6501,
            "z": -0.7558
          }
        },
        {
          "id": 17162153,
          "atomPositionNumber": 6,
          "atomPositionNumberInMol": -1,
          "apClass": {
            "rule": "bridge",
            "subClass": 0,
            "bndTyp": "SINGLE"
          },
          "dirVec": {
            "x": -0.8149,
            "y": 2.0931,
            "z": 0.1475
          }
        }
      ],
      "lstSymAPs": [],
      "mol": {
        "atoms": [
          {
            "elSymbol": "C",
            "p3d": {
              "x": -1.8258,
              "y": -0.5811,
              "z": 0.5645
            }
          },
          {
            "elSymbol": "C",
            "p3d": {
              "x": -0.3615,
              "y": -0.3647,
              "z": 0.2814
            }
          },
          {
            "elSymbol": "C",
            "p3d": {
              "x": 0.4975,
              "y": -1.4461,
              "z": 0.2179
            }
          },
          {
            "elSymbol": "C",
            "p3d": {
              "x": 1.8404,
              "y": -1.2477,
              "z": -0.0418
            }
          },
          {
            "elSymbol": "C",
            "p3d": {
              "x": 2.3248,
              "y": 0.0323,
              "z": -0.2386
            }
          },
          {
            "elSymbol": "C",
            "p3d": {
              "x": 1.4658,
              "y": 1.1133,
              "z": -0.1761
            }
          },
          {
            "elSymbol": "C",
            "p3d": {
              "x": 0.1217,
              "y": 0.9144,
              "z": 0.0794
            }
          },
          {
            "elSymbol": "H",
            "p3d": {
              "x": -2.206,
              "y": 0.246,
              "z": 1.164
            }
          },
          {
            "elSymbol": "H",
            "p3d": {
              "x": -1.956,
              "y": -1.5155,
              "z": 1.1104
            }
          },
          {
            "elSymbol": "H",
            "p3d": {
              "x": 0.1192,
              "y": -2.446,
              "z": 0.3716
            }
          },
          {
            "elSymbol": "H",
            "p3d": {
              "x": 2.5116,
              "y": -2.0924,
              "z": -0.0906
            }
          },
          {
            "elSymbol": "H",
            "p3d": {
              "x": 3.3743,
              "y": 0.1874,
              "z": -0.4409
            }
          },
          {
            "elSymbol": "H",
            "p3d": {
              "x": 1.8441,
              "y": 2.1132,
              "z": -0.3295
            }
          }
        ],
        "bonds": [
          {
            "atomIds": [
              0,
              1
            ],
            "bo": "SINGLE"
          },
          {
            "atomIds": [
              1,
              2
            ],
            "bo": "SINGLE"
          },
          {
            "atomIds": [
              2,
              3
            ],
            "bo": "DOUBLE"
          },
          {
            "atomIds": [
              3,
              4
            ],
            "bo": "SINGLE"
          },
          {
            "atomIds": [
              4,
              5
            ],
            "bo": "DOUBLE"
          },
          {
            "atomIds": [
              5,
              6
            ],
            "bo": "SINGLE"
          },
          {
            "atomIds": [
              1,
              6
            ],
            "bo": "DOUBLE"
          },
          {
            "atomIds": [
              0,
              7
            ],
            "bo": "SINGLE"
          },
          {
            "atomIds": [
              0,
              8
            ],
            "bo": "SINGLE"
          },
          {
            "atomIds": [
              2,
              9
            ],
            "bo": "SINGLE"
          },
          {
            "atomIds": [
              3,
              10
            ],
            "bo": "SINGLE"
          },
          {
            "atomIds": [
              4,
              11
            ],
            "bo": "SINGLE"
          },
          {
            "atomIds": [
              5,
              12
            ],
            "bo": "SINGLE"
          }
        ]
      },
      "vertexId": 10250781,
      "buildingBlockId": 67,
      "buildingBlockType": "FRAGMENT",
      "isRCV": false,
      "properties": {
        "ATTACHMENT_POINTS": "1#bridge:0:SINGLE:-2.5958%-0.6501%-0.7558 7#bridge:0:SINGLE:-0.8149%2.0931%0.1475 ",
        "OLDVERTEXID": 189302
      },
      "uniquefyingPropertyKeys": [],
      "allowedMutationTypes": [
        "DELETE",
        "EXTEND",
        "CHANGEBRANCH",
        "CHANGELINK",
        "ADDLINK",
        "DELETELINK",
        "DELETECHAIN"
      ],
      "vertexType": "MolecularFragment"
    },
    {
      "lstAPs": [
        {
          "id": 17162154,
          "atomPositionNumber": 0,
          "atomPositionNumberInMol": -1,
          "apClass": {
            "rule": "bridge",
            "subClass": 0,
            "bndTyp": "SINGLE"
          },
          "dirVec": {
            "x": -2.5958,
            "y": -0.6501,
            "z": -0.7558
          }
        },
        {
          "id": 17162155,
          "atomPositionNumber": 6,
          "atomPositionNumberInMol": -1,
          "apClass": {
            "rule": "bridge",
            "subClass": 0,
            "bndTyp": "SINGLE"
          },
          "dirVec": {
            "x": -0.8149,
            "y": 2.0931,
            "z": 0.1475
          }
        }
      ],
      "lstSymAPs": [],
      "mol": {
        "atoms": [
          {
            "elSymbol": "C",
            "p3d": {
              "x": -1.8258,
              "y": -0.5811,
              "z": 0.5645
            }
          },
          {
            "elSymbol": "C",
            "p3d": {
              "x": -0.3615,
              "y": -0.3647,
              "z": 0.2814
            }
          },
          {
            "elSymbol": "C",
            "p3d": {
              "x": 0.4975,
              "y": -1.4461,
              "z": 0.2179
            }
          },
          {
            "elSymbol": "C",
            "p3d": {
              "x": 1.8404,
              "y": -1.2477,
              "z": -0.0418
            }
          },
          {
            "elSymbol": "C",
            "p3d": {
              "x": 2.3248,
              "y": 0.0323,
              "z": -0.2386
            }
          },
          {
            "elSymbol": "C",
            "p3d": {
              "x": 1.4658,
              "y": 1.1133,
              "z": -0.1761
            }
          },
          {
            "elSymbol": "C",
            "p3d": {
              "x": 0.1217,
              "y": 0.9144,
              "z": 0.0794
            }
          },
          {
            "elSymbol": "H",
            "p3d": {
              "x": -2.206,
              "y": 0.246,
              "z": 1.164
            }
          },
          {
            "elSymbol": "H",
            "p3d": {
              "x": -1.956,
              "y": -1.5155,
              "z": 1.1104
            }
          },
          {
            "elSymbol": "H",
            "p3d": {
              "x": 0.1192,
              "y": -2.446,
              "z": 0.3716
            }
          },
          {
            "elSymbol": "H",
            "p3d": {
              "x": 2.5116,
              "y": -2.0924,
              "z": -0.0906
            }
          },
          {
            "elSymbol": "H",
            "p3d": {
              "x": 3.3743,
              "y": 0.1874,
              "z": -0.4409
            }
          },
          {
            "elSymbol": "H",
            "p3d": {
              "x": 1.8441,
              "y": 2.1132,
              "z": -0.3295
            }
          }
        ],
        "bonds": [
          {
            "atomIds": [
              0,
              1
            ],
            "bo": "SINGLE"
          },
          {
            "atomIds": [
              1,
              2
            ],
            "bo": "SINGLE"
          },
          {
            "atomIds": [
              2,
              3
            ],
            "bo": "DOUBLE"
          },
          {
            "atomIds": [
              3,
              4
            ],
            "bo": "SINGLE"
          },
          {
            "atomIds": [
              4,
              5
            ],
            "bo": "DOUBLE"
          },
          {
            "atomIds": [
              5,
              6
            ],
            "bo": "SINGLE"
          },
          {
            "atomIds": [
              1,
              6
            ],
            "bo": "DOUBLE"
          },
          {
            "atomIds": [
              0,
              7
            ],
            "bo": "SINGLE"
          },
          {
            "atomIds": [
              0,
              8
            ],
            "bo": "SINGLE"
          },
          {
            "atomIds": [
              2,
              9
            ],
            "bo": "SINGLE"
          },
          {
            "atomIds": [
              3,
              10
            ],
            "bo": "SINGLE"
          },
          {
            "atomIds": [
              4,
              11
            ],
            "bo": "SINGLE"
          },
          {
            "atomIds": [
              5,
              12
            ],
            "bo": "SINGLE"
          }
        ]
      },
      "vertexId": 10250782,
      "buildingBlockId": 67,
      "buildingBlockType": "FRAGMENT",
      "isRCV": false,
      "properties": {
        "ATTACHMENT_POINTS": "1#bridge:0:SINGLE:-2.5958%-0.6501%-0.7558 7#bridge:0:SINGLE:-0.8149%2.0931%0.1475 ",
        "OLDVERTEXID": 189433
      },
      "uniquefyingPropertyKeys": [],
      "allowedMutationTypes": [
        "DELETE",
        "EXTEND",
        "CHANGEBRANCH",
        "CHANGELINK",
        "ADDLINK",
        "DELETELINK",
        "DELETECHAIN"
      ],
      "vertexType": "MolecularFragment"
    },
    {
      "lstAPs": [
        {
          "id": 17162156,
          "atomPositionNumber": 0,
          "atomPositionNumberInMol": -1,
          "apClass": {
            "rule": "ATminus",
            "subClass": 0,
            "bndTyp": "ANY"
          },
          "dirVec": {
            "x": 0.0109,
            "y": -0.0071,
            "z": 0.0026
          }
        }
      ],
      "lstSymAPs": [],
      "mol": {
        "atoms": [
          {
            "elSymbol": "ATM",
            "p3d": {
              "x": -0.0096,
              "y": 0.0045,
              "z": -0.0011
            }
          }
        ],
        "bonds": []
      },
      "vertexId": 10250783,
      "buildingBlockId": 79,
      "buildingBlockType": "FRAGMENT",
      "isRCV": true,
      "properties": {
        "ATTACHMENT_POINTS": "1#ATminus:0:ANY:0.0109%-0.0071%0.0026 ",
        "OLDVERTEXID": 10250633
      },
      "uniquefyingPropertyKeys": [],
      "allowedMutationTypes": [
        "DELETE",
        "EXTEND",
        "CHANGEBRANCH",
        "CHANGELINK",
        "ADDLINK",
        "DELETELINK",
        "DELETECHAIN"
      ],
      "vertexType": "MolecularFragment"
    },
    {
      "lstAPs": [
        {
          "id": 17162157,
          "atomPositionNumber": 0,
          "atomPositionNumberInMol": -1,
          "apClass": {
            "rule": "ATminus",
            "subClass": 0,
            "bndTyp": "ANY"
          },
          "dirVec": {
            "x": 0.0109,
            "y": -0.0071,
            "z": 0.0026
          }
        }
      ],
      "lstSymAPs": [],
      "mol": {
        "atoms": [
          {
            "elSymbol": "ATM",
            "p3d": {
              "x": -0.0096,
              "y": 0.0045,
              "z": -0.0011
            }
          }
        ],
        "bonds": []
      },
      "vertexId": 10250784,
      "buildingBlockId": 79,
      "buildingBlockType": "FRAGMENT",
      "isRCV": true,
      "properties": {
        "ATTACHMENT_POINTS": "1#ATminus:0:ANY:0.0109%-0.0071%0.0026 ",
        "OLDVERTEXID": 10250631
      },
      "uniquefyingPropertyKeys": [],
      "allowedMutationTypes": [
        "DELETE",
        "EXTEND",
        "CHANGEBRANCH",
        "CHANGELINK",
        "ADDLINK",
        "DELETELINK",
        "DELETECHAIN"
      ],
      "vertexType": "MolecularFragment"
    }
  ],
  "gEdges": [
    {
      "srcAPID": 17162138,
      "trgAPID": 17162141,
      "bondType": "SINGLE"
    },
    {
      "srcAPID": 17162139,
      "trgAPID": 17162144,
      "bondType": "SINGLE"
    },
    {
      "srcAPID": 17162140,
      "trgAPID": 17162145,
      "bondType": "SINGLE"
    },
    {
      "srcAPID": 17162142,
      "trgAPID": 17162146,
      "bondType": "SINGLE"
    },
    {
      "srcAPID": 17162143,
      "trgAPID": 17162147,
      "bondType": "SINGLE"
    },
    {
      "srcAPID": 17162136,
      "trgAPID": 17162148,
      "bondType": "SINGLE"
    },
    {
      "srcAPID": 17162137,
      "trgAPID": 17162150,
      "bondType": "SINGLE"
    },
    {
      "srcAPID": 17162149,
      "trgAPID": 17162153,
      "bondType": "SINGLE"
    },
    {
      "srcAPID": 17162151,
      "trgAPID": 17162155,
      "bondType": "SINGLE"
    },
    {
      "srcAPID": 17162154,
      "trgAPID": 17162156,
      "bondType": "SINGLE"
    },
    {
      "srcAPID": 17162152,
      "trgAPID": 17162157,
      "bondType": "SINGLE"
    }
  ],
  "gRings": [
    {
      "vertices": [
        10250775,
        10250774,
        10250773,
        10250780,
        10250782,
        10250783
      ],
      "bndTyp": "SINGLE"
    },
    {
      "vertices": [
        10250776,
        10250774,
        10250773,
        10250779,
        10250781,
        10250784
      ],
      "bndTyp": "SINGLE"
    }
  ],
  "symVertices": [
    {
      "symIds": [
        10250775,
        10250776
      ]
    },
    {
      "symIds": [
        10250779,
        10250780
      ]
    },
    {
      "symIds": [
        10250777,
        10250778
      ]
    },
    {
      "symIds": [
        10250781,
        10250782
      ]
    },
    {
      "symIds": [
        10250783,
        10250784
      ]
    }
  ]
}

> <SMILES>
[Pt]12(C#O)[C]3N(C(C(N3C(C=4C(=C(C(=C(C4S1)[H])[H])[H])[H])([H])[H])([H])[H])(C([H])([H])[H])C([H])([H])[H])C(C=5C(=C(C(=C(C5S2)[H])[H])[H])[H])([H])[H]

$$$$
