M30021074
  CDK     05082200323D

 34 36  0  0  0  0  0  0  0  0999 V2000
   -2.5485   -0.0496    0.1434 Pt  0  0  0  0  0  0  0  0  0  0  0  0
   -4.4905   -0.0906   -0.0279 C   0  0  0  0  0  0  0  0  0  0  0  0
   -5.6310   -0.1143   -0.0997 O   0  0  0  0  0  0  0  0  0  0  0  0
   -0.3036   -0.0007    0.4710 P   0  0  0  0  0  0  0  0  0  0  0  0
    0.6819    0.0005   -1.0806 C   0  0  0  0  0  0  0  0  0  0  0  0
    1.9524   -0.0049   -3.5524 C   0  0  0  0  0  0  0  0  0  0  0  0
    2.0812    0.0313   -1.1205 C   0  0  0  0  0  0  0  0  0  0  0  0
   -0.0850   -0.0326   -2.2505 C   0  0  0  0  0  0  0  0  0  0  0  0
    0.5547   -0.0354   -3.4929 C   0  0  0  0  0  0  0  0  0  0  0  0
    2.7094    0.0281   -2.3809 C   0  0  0  0  0  0  0  0  0  0  0  0
   -1.1837   -0.0567   -2.2211 H   0  0  0  0  0  0  0  0  0  0  0  0
   -0.0318   -0.0611   -4.4094 H   0  0  0  0  0  0  0  0  0  0  0  0
    3.7958    0.0516   -2.4437 H   0  0  0  0  0  0  0  0  0  0  0  0
    2.4536   -0.0070   -4.5211 H   0  0  0  0  0  0  0  0  0  0  0  0
    2.9337    0.0674    0.1072 C   0  0  0  0  0  0  0  0  0  0  0  0
    2.7800   -0.8176    0.7423 H   0  0  0  0  0  0  0  0  0  0  0  0
    2.7434    0.9646    0.7146 H   0  0  0  0  0  0  0  0  0  0  0  0
    4.0077    0.0857   -0.1309 H   0  0  0  0  0  0  0  0  0  0  0  0
   -2.4107   -2.3859    0.2820 S   0  0  0  0  0  0  0  0  0  0  0  0
   -0.0153   -1.5395    1.4031 C   0  0  0  0  0  0  0  0  0  0  0  0
   -0.9277   -2.5110    1.2642 C   0  0  0  0  0  0  0  0  0  0  0  0
    0.8748   -1.6226    2.0142 H   0  0  0  0  0  0  0  0  0  0  0  0
   -0.8231   -3.8495    1.8942 C   0  0  0  0  0  0  0  0  0  0  0  0
   -1.6712   -4.0445    2.5735 H   0  0  0  0  0  0  0  0  0  0  0  0
   -0.8382   -4.6571    1.1423 H   0  0  0  0  0  0  0  0  0  0  0  0
    0.0962   -3.9768    2.4837 H   0  0  0  0  0  0  0  0  0  0  0  0
   -2.5047    2.2930    0.2286 S   0  0  0  0  0  0  0  0  0  0  0  0
   -0.0777    1.5693    1.3674 C   0  0  0  0  0  0  0  0  0  0  0  0
   -1.0284    2.4999    1.2070 C   0  0  0  0  0  0  0  0  0  0  0  0
    0.8081    1.7020    1.9759 H   0  0  0  0  0  0  0  0  0  0  0  0
   -0.9780    3.8554    1.8065 C   0  0  0  0  0  0  0  0  0  0  0  0
   -1.0252    4.6446    1.0366 H   0  0  0  0  0  0  0  0  0  0  0  0
   -1.8336    4.0315    2.4816 H   0  0  0  0  0  0  0  0  0  0  0  0
   -0.0649    4.0329    2.3925 H   0  0  0  0  0  0  0  0  0  0  0  0
  2  3  3  0  0  0  0
  1  2  1  0  0  0  0
  1  4  1  0  0  0  0
  5  8  1  0  0  0  0
  8  9  2  0  0  0  0
  6  9  1  0  0  0  0
  6 10  2  0  0  0  0
  7 10  1  0  0  0  0
  5  7  2  0  0  0  0
  9 12  1  0  0  0  0
 10 13  1  0  0  0  0
  6 14  1  0  0  0  0
  8 11  1  0  0  0  0
 15 16  1  0  0  0  0
 15 17  1  0  0  0  0
 15 18  1  0  0  0  0
  7 15  1  0  0  0  0
  4  5  1  0  0  0  0
  1 19  1  0  0  0  0
 20 21  2  0  0  0  0
 20 22  1  0  0  0  0
 19 21  1  0  0  0  0
 23 24  1  0  0  0  0
 23 25  1  0  0  0  0
 23 26  1  0  0  0  0
 21 23  1  0  0  0  0
  1 27  1  0  0  0  0
 28 29  2  0  0  0  0
 28 30  1  0  0  0  0
 27 29  1  0  0  0  0
 31 32  1  0  0  0  0
 31 33  1  0  0  0  0
 31 34  1  0  0  0  0
 29 31  1  0  0  0  0
  4 20  1  0  0  0  0
  4 28  1  0  0  0  0
M  END
> <PM6_ENERGY>
28.515

> <UID>
XHWSYGZWWIIJJC-XGTKDTAKNA-L

> <FITNESS>
1.143

> <GCODE>
59195

> <GraphENC>
59195 2855528_1_0,2855529_39_1,2855530_79_1,2855531_79_1,2855532_74_1,2855533_74_1,2855534_30_1,2855535_72_1,2855536_72_1,2855537_80_1,2855538_24_1,2855539_80_1,2855540_24_1, 2855528_2_2855529_3_SINGLE_scaff:0_MPhosphine:1,2855529_1_2855530_0_SINGLE_LPhosphineSubMSym:0_ATplus:0,2855529_0_2855531_0_SINGLE_LPhosphineSubMSym:0_ATplus:0,2855528_1_2855532_0_SINGLE_Xlig:0_Xlig:1,2855528_0_2855533_0_SINGLE_Xlig:0_Xlig:1,2855529_2_2855534_0_SINGLE_LPhosphineSubM:0_SubArM:1,2855532_1_2855535_1_SINGLE_bridge:1_bridge:0,2855533_1_2855536_1_SINGLE_bridge:1_bridge:0,2855536_0_2855537_0_SINGLE_bridge:0_ATminus:0,2855535_2_2855538_0_SINGLE_SubBridge:0_SubRS:1,2855535_0_2855539_0_SINGLE_bridge:0_ATminus:0,2855536_2_2855540_0_SINGLE_SubBridge:0_SubRS:1, DENOPTIMRing [vertices=[2855531_79_1, 2855529_39_1, 2855528_1_0, 2855533_74_1, 2855536_72_1, 2855537_80_1]] DENOPTIMRing [vertices=[2855530_79_1, 2855529_39_1, 2855528_1_0, 2855532_74_1, 2855535_72_1, 2855539_80_1]] SymmetricSet [symIds=[2855530, 2855531]] SymmetricSet [symIds=[2855532, 2855533]] SymmetricSet [symIds=[2855535, 2855536]] SymmetricSet [symIds=[2855537, 2855539]] SymmetricSet [symIds=[2855538, 2855540]] 

> <GraphJson>
{
  "graphId": 59195,
  "gVertices": [
    {
      "lstAPs": [
        {
          "id": 4700796,
          "atomPositionNumber": 0,
          "atomPositionNumberInMol": -1,
          "apClass": {
            "rule": "Xlig",
            "subClass": 0,
            "bndTyp": "SINGLE"
          },
          "dirVec": {
            "x": -2.3339,
            "y": -0.0087,
            "z": 0.8172
          }
        },
        {
          "id": 4700797,
          "atomPositionNumber": 0,
          "atomPositionNumberInMol": -1,
          "apClass": {
            "rule": "Xlig",
            "subClass": 0,
            "bndTyp": "SINGLE"
          },
          "dirVec": {
            "x": 2.336,
            "y": -5.0E-4,
            "z": 0.829
          }
        },
        {
          "id": 4700798,
          "atomPositionNumber": 0,
          "atomPositionNumberInMol": -1,
          "apClass": {
            "rule": "scaff",
            "subClass": 0,
            "bndTyp": "SINGLE"
          },
          "dirVec": {
            "x": -0.0095,
            "y": 0.0046,
            "z": -1.7113
          }
        }
      ],
      "lstSymAPs": [
        {
          "symIds": [
            0,
            1
          ]
        }
      ],
      "mol": {
        "atoms": [
          {
            "elSymbol": "Pt",
            "p3d": {
              "x": -0.0098,
              "y": 0.0049,
              "z": 0.6289
            }
          },
          {
            "elSymbol": "C",
            "p3d": {
              "x": -6.0E-4,
              "y": 0.0016,
              "z": 2.5609
            }
          },
          {
            "elSymbol": "O",
            "p3d": {
              "x": 0.0025,
              "y": -0.0041,
              "z": 3.6974
            }
          },
          {
            "elSymbol": "Du",
            "p3d": {
              "x": -0.007,
              "y": 1.0013,
              "z": 0.6372
            }
          },
          {
            "elSymbol": "Du",
            "p3d": {
              "x": -0.0014,
              "y": 0.9902,
              "z": 2.5698
            }
          }
        ],
        "bonds": [
          {
            "atomIds": [
              1,
              2
            ],
            "bo": "TRIPLE"
          },
          {
            "atomIds": [
              0,
              1
            ],
            "bo": "SINGLE"
          },
          {
            "atomIds": [
              3,
              0
            ],
            "bo": "SINGLE"
          },
          {
            "atomIds": [
              4,
              1
            ],
            "bo": "SINGLE"
          }
        ]
      },
      "vertexId": 2855528,
      "buildingBlockId": 0,
      "buildingBlockType": "SCAFFOLD",
      "isRCV": false,
      "properties": {
        "ATTACHMENT_POINTS": "1#Xlig:0:SINGLE:-2.3339%-0.0087%0.8172,Xlig:0:SINGLE:2.3360%-0.0005%0.8290,scaff:0:SINGLE:-0.0095%0.0046%-1.7113 ",
        "OLDVERTEXID": 173
      },
      "uniquefyingPropertyKeys": [],
      "allowedMutationTypes": [
        "DELETE",
        "EXTEND",
        "CHANGEBRANCH",
        "CHANGELINK",
        "ADDLINK",
        "DELETELINK",
        "DELETECHAIN"
      ],
      "vertexType": "MolecularFragment"
    },
    {
      "lstAPs": [
        {
          "id": 4700799,
          "atomPositionNumber": 0,
          "atomPositionNumberInMol": -1,
          "apClass": {
            "rule": "LPhosphineSubMSym",
            "subClass": 0,
            "bndTyp": "SINGLE"
          },
          "dirVec": {
            "x": 1.6990896281071761,
            "y": -0.022388909837196012,
            "z": -2.396120418214485
          }
        },
        {
          "id": 4700800,
          "atomPositionNumber": 0,
          "atomPositionNumberInMol": -1,
          "apClass": {
            "rule": "LPhosphineSubMSym",
            "subClass": 0,
            "bndTyp": "SINGLE"
          },
          "dirVec": {
            "x": -0.7974463454160869,
            "y": -1.5166607579844005,
            "z": -2.4042461021237207
          }
        },
        {
          "id": 4700801,
          "atomPositionNumber": 0,
          "atomPositionNumberInMol": -1,
          "apClass": {
            "rule": "LPhosphineSubM",
            "subClass": 0,
            "bndTyp": "SINGLE"
          },
          "dirVec": {
            "x": -0.7742387081003741,
            "y": 1.5297606753905255,
            "z": -2.410065538873874
          }
        },
        {
          "id": 4700802,
          "atomPositionNumber": 0,
          "atomPositionNumberInMol": -1,
          "apClass": {
            "rule": "MPhosphine",
            "subClass": 1,
            "bndTyp": "SINGLE"
          },
          "dirVec": {
            "x": -0.009797986516488381,
            "y": 0.004897986516489378,
            "z": 0.6131934862948514
          }
        }
      ],
      "lstSymAPs": [
        {
          "symIds": [
            0,
            1
          ]
        }
      ],
      "mol": {
        "atoms": [
          {
            "elSymbol": "P",
            "p3d": {
              "x": -0.009502013483511618,
              "y": 0.004602013483510622,
              "z": -1.6955934862948516
            }
          }
        ],
        "bonds": []
      },
      "vertexId": 2855529,
      "buildingBlockId": 38,
      "buildingBlockType": "FRAGMENT",
      "isRCV": false,
      "properties": {
        "ATTACHMENT_POINTS": "1#LPhosphineSubMSym:0:SINGLE:1.6991%-0.0224%-2.3961,LPhosphineSubMSym:0:SINGLE:-0.7974%-1.5167%-2.4042,LPhosphineSubM:0:SINGLE:-0.7742%1.5298%-2.4101,MPhosphine:1:SINGLE:-0.0098%0.0049%0.6132 ",
        "OLDVERTEXID": 174
      },
      "uniquefyingPropertyKeys": [],
      "allowedMutationTypes": [
        "DELETE",
        "EXTEND",
        "CHANGEBRANCH",
        "CHANGELINK",
        "ADDLINK",
        "DELETELINK",
        "DELETECHAIN"
      ],
      "vertexType": "MolecularFragment"
    },
    {
      "lstAPs": [
        {
          "id": 4700803,
          "atomPositionNumber": 0,
          "atomPositionNumberInMol": -1,
          "apClass": {
            "rule": "ATplus",
            "subClass": 0,
            "bndTyp": "ANY"
          },
          "dirVec": {
            "x": -0.7974463454160869,
            "y": -1.5166607579844005,
            "z": -2.4042461021237207
          }
        }
      ],
      "lstSymAPs": [],
      "mol": {
        "atoms": [
          {
            "elSymbol": "ATP",
            "p3d": {
              "x": -0.8063679812732594,
              "y": -1.5338855185925786,
              "z": -2.4122699438234907
            }
          }
        ],
        "bonds": []
      },
      "vertexId": 2855530,
      "buildingBlockId": 78,
      "buildingBlockType": "FRAGMENT",
      "isRCV": true,
      "properties": {
        "ATTACHMENT_POINTS": "1#ATplus:0:ANY:-0.7974%-1.5167%-2.4042 ",
        "OLDVERTEXID": 175
      },
      "uniquefyingPropertyKeys": [],
      "allowedMutationTypes": [
        "DELETE",
        "EXTEND",
        "CHANGEBRANCH",
        "CHANGELINK",
        "ADDLINK",
        "DELETELINK",
        "DELETECHAIN"
      ],
      "vertexType": "MolecularFragment"
    },
    {
      "lstAPs": [
        {
          "id": 4700804,
          "atomPositionNumber": 0,
          "atomPositionNumberInMol": -1,
          "apClass": {
            "rule": "ATplus",
            "subClass": 0,
            "bndTyp": "ANY"
          },
          "dirVec": {
            "x": 1.6990896281071761,
            "y": -0.022388909837196012,
            "z": -2.396120418214485
          }
        }
      ],
      "lstSymAPs": [],
      "mol": {
        "atoms": [
          {
            "elSymbol": "ATP",
            "p3d": {
              "x": 1.718510555115942,
              "y": -0.02269570564431036,
              "z": -2.4040830478337076
            }
          }
        ],
        "bonds": []
      },
      "vertexId": 2855531,
      "buildingBlockId": 78,
      "buildingBlockType": "FRAGMENT",
      "isRCV": true,
      "properties": {
        "ATTACHMENT_POINTS": "1#ATplus:0:ANY:1.6991%-0.0224%-2.3961 ",
        "OLDVERTEXID": 176
      },
      "uniquefyingPropertyKeys": [],
      "allowedMutationTypes": [
        "DELETE",
        "EXTEND",
        "CHANGEBRANCH",
        "CHANGELINK",
        "ADDLINK",
        "DELETELINK",
        "DELETECHAIN"
      ],
      "vertexType": "MolecularFragment"
    },
    {
      "lstAPs": [
        {
          "id": 4700805,
          "atomPositionNumber": 0,
          "atomPositionNumberInMol": -1,
          "apClass": {
            "rule": "Xlig",
            "subClass": 1,
            "bndTyp": "SINGLE"
          },
          "dirVec": {
            "x": -0.102,
            "y": 0.0185,
            "z": -1.0265
          }
        },
        {
          "id": 4700806,
          "atomPositionNumber": 0,
          "atomPositionNumberInMol": -1,
          "apClass": {
            "rule": "bridge",
            "subClass": 1,
            "bndTyp": "SINGLE"
          },
          "dirVec": {
            "x": -0.626,
            "y": 2.4866,
            "z": 0.7805
          }
        }
      ],
      "lstSymAPs": [],
      "mol": {
        "atoms": [
          {
            "elSymbol": "S",
            "p3d": {
              "x": -0.3267,
              "y": 2.3403,
              "z": -1.0022
            }
          }
        ],
        "bonds": []
      },
      "vertexId": 2855532,
      "buildingBlockId": 73,
      "buildingBlockType": "FRAGMENT",
      "isRCV": false,
      "properties": {
        "ATTACHMENT_POINTS": "1#Xlig:1:SINGLE:-0.1020%0.0185%-1.0265,bridge:1:SINGLE:-0.6260%2.4866%0.7805 ",
        "OLDVERTEXID": 13697
      },
      "uniquefyingPropertyKeys": [],
      "allowedMutationTypes": [
        "DELETE",
        "EXTEND",
        "CHANGEBRANCH",
        "CHANGELINK",
        "ADDLINK",
        "DELETELINK",
        "DELETECHAIN"
      ],
      "vertexType": "MolecularFragment"
    },
    {
      "lstAPs": [
        {
          "id": 4700807,
          "atomPositionNumber": 0,
          "atomPositionNumberInMol": -1,
          "apClass": {
            "rule": "Xlig",
            "subClass": 1,
            "bndTyp": "SINGLE"
          },
          "dirVec": {
            "x": -0.102,
            "y": 0.0185,
            "z": -1.0265
          }
        },
        {
          "id": 4700808,
          "atomPositionNumber": 0,
          "atomPositionNumberInMol": -1,
          "apClass": {
            "rule": "bridge",
            "subClass": 1,
            "bndTyp": "SINGLE"
          },
          "dirVec": {
            "x": -0.626,
            "y": 2.4866,
            "z": 0.7805
          }
        }
      ],
      "lstSymAPs": [],
      "mol": {
        "atoms": [
          {
            "elSymbol": "S",
            "p3d": {
              "x": -0.3267,
              "y": 2.3403,
              "z": -1.0022
            }
          }
        ],
        "bonds": []
      },
      "vertexId": 2855533,
      "buildingBlockId": 73,
      "buildingBlockType": "FRAGMENT",
      "isRCV": false,
      "properties": {
        "ATTACHMENT_POINTS": "1#Xlig:1:SINGLE:-0.1020%0.0185%-1.0265,bridge:1:SINGLE:-0.6260%2.4866%0.7805 ",
        "OLDVERTEXID": 13392
      },
      "uniquefyingPropertyKeys": [],
      "allowedMutationTypes": [
        "DELETE",
        "EXTEND",
        "CHANGEBRANCH",
        "CHANGELINK",
        "ADDLINK",
        "DELETELINK",
        "DELETECHAIN"
      ],
      "vertexType": "MolecularFragment"
    },
    {
      "lstAPs": [
        {
          "id": 4700809,
          "atomPositionNumber": 0,
          "atomPositionNumberInMol": -1,
          "apClass": {
            "rule": "SubArM",
            "subClass": 1,
            "bndTyp": "SINGLE"
          },
          "dirVec": {
            "x": 0.3016,
            "y": 0.3831,
            "z": -0.6449
          }
        }
      ],
      "lstSymAPs": [],
      "mol": {
        "atoms": [
          {
            "elSymbol": "C",
            "p3d": {
              "x": 1.7096,
              "y": 0.5525,
              "z": -1.2136
            }
          },
          {
            "elSymbol": "C",
            "p3d": {
              "x": 4.2502,
              "y": 0.8767,
              "z": -2.2636
            }
          },
          {
            "elSymbol": "C",
            "p3d": {
              "x": 2.3368,
              "y": 1.7899,
              "z": -1.1199
            }
          },
          {
            "elSymbol": "C",
            "p3d": {
              "x": 2.344,
              "y": -0.5151,
              "z": -1.819
            }
          },
          {
            "elSymbol": "C",
            "p3d": {
              "x": 3.6162,
              "y": -0.3625,
              "z": -2.3439
            }
          },
          {
            "elSymbol": "C",
            "p3d": {
              "x": 3.6039,
              "y": 1.9353,
              "z": -1.6584
            }
          },
          {
            "elSymbol": "H",
            "p3d": {
              "x": 1.8411,
              "y": -1.493,
              "z": -1.8837
            }
          },
          {
            "elSymbol": "H",
            "p3d": {
              "x": 4.113,
              "y": -1.2006,
              "z": -2.8069
            }
          },
          {
            "elSymbol": "H",
            "p3d": {
              "x": 4.1107,
              "y": 2.9115,
              "z": -1.5913
            }
          },
          {
            "elSymbol": "H",
            "p3d": {
              "x": 5.2516,
              "y": 0.992,
              "z": -2.67
            }
          },
          {
            "elSymbol": "C",
            "p3d": {
              "x": 1.6301,
              "y": 2.9729,
              "z": -0.4606
            }
          },
          {
            "elSymbol": "H",
            "p3d": {
              "x": 2.3743,
              "y": 3.6775,
              "z": -0.0646
            }
          },
          {
            "elSymbol": "H",
            "p3d": {
              "x": 1.0016,
              "y": 2.6144,
              "z": 0.3512
            }
          },
          {
            "elSymbol": "H",
            "p3d": {
              "x": 1.0097,
              "y": 3.4845,
              "z": -1.1971
            }
          }
        ],
        "bonds": [
          {
            "atomIds": [
              0,
              3
            ],
            "bo": "SINGLE"
          },
          {
            "atomIds": [
              3,
              4
            ],
            "bo": "DOUBLE"
          },
          {
            "atomIds": [
              1,
              4
            ],
            "bo": "SINGLE"
          },
          {
            "atomIds": [
              1,
              5
            ],
            "bo": "DOUBLE"
          },
          {
            "atomIds": [
              2,
              5
            ],
            "bo": "SINGLE"
          },
          {
            "atomIds": [
              0,
              2
            ],
            "bo": "DOUBLE"
          },
          {
            "atomIds": [
              4,
              7
            ],
            "bo": "SINGLE"
          },
          {
            "atomIds": [
              5,
              8
            ],
            "bo": "SINGLE"
          },
          {
            "atomIds": [
              1,
              9
            ],
            "bo": "SINGLE"
          },
          {
            "atomIds": [
              3,
              6
            ],
            "bo": "SINGLE"
          },
          {
            "atomIds": [
              10,
              11
            ],
            "bo": "SINGLE"
          },
          {
            "atomIds": [
              10,
              12
            ],
            "bo": "SINGLE"
          },
          {
            "atomIds": [
              10,
              13
            ],
            "bo": "SINGLE"
          },
          {
            "atomIds": [
              2,
              10
            ],
            "bo": "SINGLE"
          }
        ]
      },
      "vertexId": 2855534,
      "buildingBlockId": 29,
      "buildingBlockType": "FRAGMENT",
      "isRCV": false,
      "properties": {
        "ATTACHMENT_POINTS": "1#SubArM:1:SINGLE:0.3016%0.3831%-0.6449 ",
        "OLDVERTEXID": 13405
      },
      "uniquefyingPropertyKeys": [],
      "allowedMutationTypes": [
        "DELETE",
        "EXTEND",
        "CHANGEBRANCH",
        "CHANGELINK",
        "ADDLINK",
        "DELETELINK",
        "DELETECHAIN"
      ],
      "vertexType": "MolecularFragment"
    },
    {
      "lstAPs": [
        {
          "id": 4700810,
          "atomPositionNumber": 0,
          "atomPositionNumberInMol": -1,
          "apClass": {
            "rule": "bridge",
            "subClass": 0,
            "bndTyp": "SINGLE"
          },
          "dirVec": {
            "x": 1.9789000000000003,
            "y": 0.17000000000000004,
            "z": 0.0
          }
        },
        {
          "id": 4700811,
          "atomPositionNumber": 1,
          "atomPositionNumberInMol": -1,
          "apClass": {
            "rule": "bridge",
            "subClass": 0,
            "bndTyp": "SINGLE"
          },
          "dirVec": {
            "x": -0.3006,
            "y": -1.4852,
            "z": 0.0
          }
        },
        {
          "id": 4700812,
          "atomPositionNumber": 1,
          "atomPositionNumberInMol": -1,
          "apClass": {
            "rule": "SubBridge",
            "subClass": 0,
            "bndTyp": "SINGLE"
          },
          "dirVec": {
            "x": -1.8343,
            "y": 0.6268,
            "z": 0.0
          }
        }
      ],
      "lstSymAPs": [],
      "mol": {
        "atoms": [
          {
            "elSymbol": "C",
            "p3d": {
              "x": 0.6023,
              "y": 0.7833,
              "z": 0.0
            }
          },
          {
            "elSymbol": "C",
            "p3d": {
              "x": -0.4578,
              "y": 0.0135,
              "z": 0.0
            }
          },
          {
            "elSymbol": "H",
            "p3d": {
              "x": 0.4897,
              "y": 1.8574,
              "z": 0.0
            }
          }
        ],
        "bonds": [
          {
            "atomIds": [
              0,
              1
            ],
            "bo": "DOUBLE"
          },
          {
            "atomIds": [
              0,
              2
            ],
            "bo": "SINGLE"
          }
        ]
      },
      "vertexId": 2855535,
      "buildingBlockId": 71,
      "buildingBlockType": "FRAGMENT",
      "isRCV": false,
      "properties": {
        "ATTACHMENT_POINTS": "1#bridge:0:SINGLE:1.9789%0.1700%0.0000 2#bridge:0:SINGLE:-0.3006%-1.4852%0.0000,SubBridge:0:SINGLE:-1.8343%0.6268%0.0000 ",
        "OLDVERTEXID": 332822
      },
      "uniquefyingPropertyKeys": [],
      "allowedMutationTypes": [
        "DELETE",
        "EXTEND",
        "CHANGEBRANCH",
        "CHANGELINK",
        "ADDLINK",
        "DELETELINK",
        "DELETECHAIN"
      ],
      "vertexType": "MolecularFragment"
    },
    {
      "lstAPs": [
        {
          "id": 4700813,
          "atomPositionNumber": 0,
          "atomPositionNumberInMol": -1,
          "apClass": {
            "rule": "bridge",
            "subClass": 0,
            "bndTyp": "SINGLE"
          },
          "dirVec": {
            "x": 1.9789000000000003,
            "y": 0.17000000000000004,
            "z": 0.0
          }
        },
        {
          "id": 4700814,
          "atomPositionNumber": 1,
          "atomPositionNumberInMol": -1,
          "apClass": {
            "rule": "bridge",
            "subClass": 0,
            "bndTyp": "SINGLE"
          },
          "dirVec": {
            "x": -0.3006,
            "y": -1.4852,
            "z": 0.0
          }
        },
        {
          "id": 4700815,
          "atomPositionNumber": 1,
          "atomPositionNumberInMol": -1,
          "apClass": {
            "rule": "SubBridge",
            "subClass": 0,
            "bndTyp": "SINGLE"
          },
          "dirVec": {
            "x": -1.8343,
            "y": 0.6268,
            "z": 0.0
          }
        }
      ],
      "lstSymAPs": [],
      "mol": {
        "atoms": [
          {
            "elSymbol": "C",
            "p3d": {
              "x": 0.6023,
              "y": 0.7833,
              "z": 0.0
            }
          },
          {
            "elSymbol": "C",
            "p3d": {
              "x": -0.4578,
              "y": 0.0135,
              "z": 0.0
            }
          },
          {
            "elSymbol": "H",
            "p3d": {
              "x": 0.4897,
              "y": 1.8574,
              "z": 0.0
            }
          }
        ],
        "bonds": [
          {
            "atomIds": [
              0,
              1
            ],
            "bo": "DOUBLE"
          },
          {
            "atomIds": [
              0,
              2
            ],
            "bo": "SINGLE"
          }
        ]
      },
      "vertexId": 2855536,
      "buildingBlockId": 71,
      "buildingBlockType": "FRAGMENT",
      "isRCV": false,
      "properties": {
        "ATTACHMENT_POINTS": "1#bridge:0:SINGLE:1.9789%0.1700%0.0000 2#bridge:0:SINGLE:-0.3006%-1.4852%0.0000,SubBridge:0:SINGLE:-1.8343%0.6268%0.0000 ",
        "OLDVERTEXID": 333118
      },
      "uniquefyingPropertyKeys": [],
      "allowedMutationTypes": [
        "DELETE",
        "EXTEND",
        "CHANGEBRANCH",
        "CHANGELINK",
        "ADDLINK",
        "DELETELINK",
        "DELETECHAIN"
      ],
      "vertexType": "MolecularFragment"
    },
    {
      "lstAPs": [
        {
          "id": 4700816,
          "atomPositionNumber": 0,
          "atomPositionNumberInMol": -1,
          "apClass": {
            "rule": "ATminus",
            "subClass": 0,
            "bndTyp": "ANY"
          },
          "dirVec": {
            "x": 0.0109,
            "y": -0.0071,
            "z": 0.0026
          }
        }
      ],
      "lstSymAPs": [],
      "mol": {
        "atoms": [
          {
            "elSymbol": "ATM",
            "p3d": {
              "x": -0.0096,
              "y": 0.0045,
              "z": -0.0011
            }
          }
        ],
        "bonds": []
      },
      "vertexId": 2855537,
      "buildingBlockId": 79,
      "buildingBlockType": "FRAGMENT",
      "isRCV": true,
      "properties": {
        "ATTACHMENT_POINTS": "1#ATminus:0:ANY:0.0109%-0.0071%0.0026 ",
        "OLDVERTEXID": 2855093
      },
      "uniquefyingPropertyKeys": [],
      "allowedMutationTypes": [
        "DELETE",
        "EXTEND",
        "CHANGEBRANCH",
        "CHANGELINK",
        "ADDLINK",
        "DELETELINK",
        "DELETECHAIN"
      ],
      "vertexType": "MolecularFragment"
    },
    {
      "lstAPs": [
        {
          "id": 4700817,
          "atomPositionNumber": 0,
          "atomPositionNumberInMol": -1,
          "apClass": {
            "rule": "SubRS",
            "subClass": 1,
            "bndTyp": "SINGLE"
          },
          "dirVec": {
            "x": 0.2865,
            "y": 0.3959,
            "z": -0.6387
          }
        }
      ],
      "lstSymAPs": [],
      "mol": {
        "atoms": [
          {
            "elSymbol": "C",
            "p3d": {
              "x": 0.3969,
              "y": -0.0496,
              "z": 0.8235
            }
          },
          {
            "elSymbol": "H",
            "p3d": {
              "x": -0.6146,
              "y": -0.163,
              "z": 1.2402
            }
          },
          {
            "elSymbol": "H",
            "p3d": {
              "x": 0.9335,
              "y": -0.9979,
              "z": 0.8998
            }
          },
          {
            "elSymbol": "H",
            "p3d": {
              "x": 0.9252,
              "y": 0.7237,
              "z": 1.3995
            }
          }
        ],
        "bonds": [
          {
            "atomIds": [
              0,
              1
            ],
            "bo": "SINGLE"
          },
          {
            "atomIds": [
              0,
              2
            ],
            "bo": "SINGLE"
          },
          {
            "atomIds": [
              0,
              3
            ],
            "bo": "SINGLE"
          }
        ]
      },
      "vertexId": 2855538,
      "buildingBlockId": 23,
      "buildingBlockType": "FRAGMENT",
      "isRCV": false,
      "properties": {
        "ATTACHMENT_POINTS": "1#SubRS:1:SINGLE:0.2865%0.3959%-0.6387 ",
        "OLDVERTEXID": 2854429
      },
      "uniquefyingPropertyKeys": [],
      "allowedMutationTypes": [
        "DELETE",
        "EXTEND",
        "CHANGEBRANCH",
        "CHANGELINK",
        "ADDLINK",
        "DELETELINK",
        "DELETECHAIN"
      ],
      "vertexType": "MolecularFragment"
    },
    {
      "lstAPs": [
        {
          "id": 4700818,
          "atomPositionNumber": 0,
          "atomPositionNumberInMol": -1,
          "apClass": {
            "rule": "ATminus",
            "subClass": 0,
            "bndTyp": "ANY"
          },
          "dirVec": {
            "x": 0.0109,
            "y": -0.0071,
            "z": 0.0026
          }
        }
      ],
      "lstSymAPs": [],
      "mol": {
        "atoms": [
          {
            "elSymbol": "ATM",
            "p3d": {
              "x": -0.0096,
              "y": 0.0045,
              "z": -0.0011
            }
          }
        ],
        "bonds": []
      },
      "vertexId": 2855539,
      "buildingBlockId": 79,
      "buildingBlockType": "FRAGMENT",
      "isRCV": true,
      "properties": {
        "ATTACHMENT_POINTS": "1#ATminus:0:ANY:0.0109%-0.0071%0.0026 ",
        "OLDVERTEXID": 2854420
      },
      "uniquefyingPropertyKeys": [],
      "allowedMutationTypes": [
        "DELETE",
        "EXTEND",
        "CHANGEBRANCH",
        "CHANGELINK",
        "ADDLINK",
        "DELETELINK",
        "DELETECHAIN"
      ],
      "vertexType": "MolecularFragment"
    },
    {
      "lstAPs": [
        {
          "id": 4700819,
          "atomPositionNumber": 0,
          "atomPositionNumberInMol": -1,
          "apClass": {
            "rule": "SubRS",
            "subClass": 1,
            "bndTyp": "SINGLE"
          },
          "dirVec": {
            "x": 0.2865,
            "y": 0.3959,
            "z": -0.6387
          }
        }
      ],
      "lstSymAPs": [],
      "mol": {
        "atoms": [
          {
            "elSymbol": "C",
            "p3d": {
              "x": 0.3969,
              "y": -0.0496,
              "z": 0.8235
            }
          },
          {
            "elSymbol": "H",
            "p3d": {
              "x": -0.6146,
              "y": -0.163,
              "z": 1.2402
            }
          },
          {
            "elSymbol": "H",
            "p3d": {
              "x": 0.9335,
              "y": -0.9979,
              "z": 0.8998
            }
          },
          {
            "elSymbol": "H",
            "p3d": {
              "x": 0.9252,
              "y": 0.7237,
              "z": 1.3995
            }
          }
        ],
        "bonds": [
          {
            "atomIds": [
              0,
              1
            ],
            "bo": "SINGLE"
          },
          {
            "atomIds": [
              0,
              2
            ],
            "bo": "SINGLE"
          },
          {
            "atomIds": [
              0,
              3
            ],
            "bo": "SINGLE"
          }
        ]
      },
      "vertexId": 2855540,
      "buildingBlockId": 23,
      "buildingBlockType": "FRAGMENT",
      "isRCV": false,
      "properties": {
        "ATTACHMENT_POINTS": "1#SubRS:1:SINGLE:0.2865%0.3959%-0.6387 ",
        "OLDVERTEXID": 2855092
      },
      "uniquefyingPropertyKeys": [],
      "allowedMutationTypes": [
        "DELETE",
        "EXTEND",
        "CHANGEBRANCH",
        "CHANGELINK",
        "ADDLINK",
        "DELETELINK",
        "DELETECHAIN"
      ],
      "vertexType": "MolecularFragment"
    }
  ],
  "gEdges": [
    {
      "srcAPID": 4700798,
      "trgAPID": 4700802,
      "bondType": "SINGLE"
    },
    {
      "srcAPID": 4700800,
      "trgAPID": 4700803,
      "bondType": "SINGLE"
    },
    {
      "srcAPID": 4700799,
      "trgAPID": 4700804,
      "bondType": "SINGLE"
    },
    {
      "srcAPID": 4700797,
      "trgAPID": 4700805,
      "bondType": "SINGLE"
    },
    {
      "srcAPID": 4700796,
      "trgAPID": 4700807,
      "bondType": "SINGLE"
    },
    {
      "srcAPID": 4700801,
      "trgAPID": 4700809,
      "bondType": "SINGLE"
    },
    {
      "srcAPID": 4700806,
      "trgAPID": 4700811,
      "bondType": "SINGLE"
    },
    {
      "srcAPID": 4700808,
      "trgAPID": 4700814,
      "bondType": "SINGLE"
    },
    {
      "srcAPID": 4700813,
      "trgAPID": 4700816,
      "bondType": "SINGLE"
    },
    {
      "srcAPID": 4700812,
      "trgAPID": 4700817,
      "bondType": "SINGLE"
    },
    {
      "srcAPID": 4700810,
      "trgAPID": 4700818,
      "bondType": "SINGLE"
    },
    {
      "srcAPID": 4700815,
      "trgAPID": 4700819,
      "bondType": "SINGLE"
    }
  ],
  "gRings": [
    {
      "vertices": [
        2855531,
        2855529,
        2855528,
        2855533,
        2855536,
        2855537
      ],
      "bndTyp": "SINGLE"
    },
    {
      "vertices": [
        2855530,
        2855529,
        2855528,
        2855532,
        2855535,
        2855539
      ],
      "bndTyp": "SINGLE"
    }
  ],
  "symVertices": [
    {
      "symIds": [
        2855530,
        2855531
      ]
    },
    {
      "symIds": [
        2855532,
        2855533
      ]
    },
    {
      "symIds": [
        2855535,
        2855536
      ]
    },
    {
      "symIds": [
        2855537,
        2855539
      ]
    },
    {
      "symIds": [
        2855538,
        2855540
      ]
    }
  ]
}

> <SMILES>
[Pt]12(C#O)[P](C=3C(=C(C(=C(C3C([H])([H])[H])[H])[H])[H])[H])(C(=C(S1)C([H])([H])[H])[H])C(=C(S2)C([H])([H])[H])[H]

$$$$
