M30020599
  CDK     05082200313D

 35 34  0  0  0  0  0  0  0  0999 V2000
   -1.6289   -0.1962    0.0512 Pt  0  0  0  0  0  0  0  0  0  0  0  0
   -3.5521   -0.3887   -0.2086 C   0  0  0  0  0  0  0  0  0  0  0  0
   -4.6758   -0.5049   -0.3742 O   0  0  0  0  0  0  0  0  0  0  0  0
    0.6415    0.0182    0.2503 P   0  0  0  0  0  0  0  0  0  0  0  0
    1.2978    0.0671   -1.5571 C   0  0  0  0  0  0  0  0  0  0  0  0
    2.7280   -0.4640   -1.6281 C   0  0  0  0  0  0  0  0  0  0  0  0
    0.3284   -0.8267   -2.3346 C   0  0  0  0  0  0  0  0  0  0  0  0
    1.2298    1.5092   -2.0554 C   0  0  0  0  0  0  0  0  0  0  0  0
    2.8122   -1.5202   -1.3410 H   0  0  0  0  0  0  0  0  0  0  0  0
    1.9375    2.1795   -1.5537 H   0  0  0  0  0  0  0  0  0  0  0  0
   -0.7166   -0.4603   -2.3139 H   0  0  0  0  0  0  0  0  0  0  0  0
    0.3197   -1.8736   -1.9941 H   0  0  0  0  0  0  0  0  0  0  0  0
    1.4749    1.5539   -3.1272 H   0  0  0  0  0  0  0  0  0  0  0  0
    0.2256    1.9573   -1.9669 H   0  0  0  0  0  0  0  0  0  0  0  0
    3.0966   -0.4097   -2.6649 H   0  0  0  0  0  0  0  0  0  0  0  0
    3.4382    0.1146   -1.0263 H   0  0  0  0  0  0  0  0  0  0  0  0
    0.6070   -0.8623   -3.3985 H   0  0  0  0  0  0  0  0  0  0  0  0
    1.4475   -1.4126    1.1469 C   0  0  0  0  0  0  0  0  0  0  0  0
    2.5398   -1.3348    1.1587 H   0  0  0  0  0  0  0  0  0  0  0  0
    1.1748   -2.3734    0.6729 H   0  0  0  0  0  0  0  0  0  0  0  0
    1.0984   -1.4745    2.1873 H   0  0  0  0  0  0  0  0  0  0  0  0
    1.2085    1.5524    1.1577 C   0  0  0  0  0  0  0  0  0  0  0  0
    0.7412    2.4552    0.7235 H   0  0  0  0  0  0  0  0  0  0  0  0
    2.2957    1.6806    1.1109 H   0  0  0  0  0  0  0  0  0  0  0  0
    0.9132    1.5213    2.2151 H   0  0  0  0  0  0  0  0  0  0  0  0
   -1.7034   -2.5283    0.2970 S   0  0  0  0  0  0  0  0  0  0  0  0
   -1.9092   -2.5141    2.1022 C   0  0  0  0  0  0  0  0  0  0  0  0
   -2.0001   -1.4888    2.4790 H   0  0  0  0  0  0  0  0  0  0  0  0
   -2.8161   -3.0688    2.3708 H   0  0  0  0  0  0  0  0  0  0  0  0
   -1.0547   -3.0002    2.5824 H   0  0  0  0  0  0  0  0  0  0  0  0
   -2.0479    2.0953   -0.2222 S   0  0  0  0  0  0  0  0  0  0  0  0
   -2.3165    2.4404    1.5414 C   0  0  0  0  0  0  0  0  0  0  0  0
   -3.3044    2.8957    1.6778 H   0  0  0  0  0  0  0  0  0  0  0  0
   -2.2688    1.5190    2.1334 H   0  0  0  0  0  0  0  0  0  0  0  0
   -1.5617    3.1424    1.9081 H   0  0  0  0  0  0  0  0  0  0  0  0
  2  3  3  0  0  0  0
  1  2  1  0  0  0  0
  1  4  1  0  0  0  0
  5  6  1  0  0  0  0
  5  7  1  0  0  0  0
  5  8  1  0  0  0  0
  6  9  1  0  0  0  0
  8 10  1  0  0  0  0
  7 11  1  0  0  0  0
  7 12  1  0  0  0  0
  8 13  1  0  0  0  0
  8 14  1  0  0  0  0
  6 15  1  0  0  0  0
  6 16  1  0  0  0  0
  7 17  1  0  0  0  0
  4  5  1  0  0  0  0
 19 18  1  0  0  0  0
 20 18  1  0  0  0  0
 21 18  1  0  0  0  0
  4 18  1  0  0  0  0
 23 22  1  0  0  0  0
 24 22  1  0  0  0  0
 25 22  1  0  0  0  0
  4 22  1  0  0  0  0
  1 26  1  0  0  0  0
 27 28  1  0  0  0  0
 27 29  1  0  0  0  0
 26 27  1  0  0  0  0
 27 30  1  0  0  0  0
  1 31  1  0  0  0  0
 32 33  1  0  0  0  0
 32 34  1  0  0  0  0
 31 32  1  0  0  0  0
 32 35  1  0  0  0  0
M  END
> <PM6_ENERGY>
-310.233

> <UID>
AYXQYKDNMSBWIS-WSWZUNQANA-L

> <FITNESS>
1.14177

> <GCODE>
58258

> <GraphENC>
58258 173_1_0,174_39_1,175_79_1,176_79_1,13630_74_1,13392_74_1,13403_27_1,331743_67_1,331803_67_1,2805014_80_1,2805016_80_1, 173_2_174_3_SINGLE_scaff:0_MPhosphine:1,174_1_175_0_SINGLE_LPhosphineSubMSym:0_ATplus:0,174_0_176_0_SINGLE_LPhosphineSubMSym:0_ATplus:0,173_1_13630_0_SINGLE_Xlig:0_Xlig:1,173_0_13392_0_SINGLE_Xlig:0_Xlig:1,174_2_13403_0_SINGLE_LPhosphineSubM:0_SubRL:1,13630_1_331743_0_SINGLE_bridge:1_bridge:0,13392_1_331803_0_SINGLE_bridge:1_bridge:0,331743_1_2805014_0_SINGLE_bridge:0_ATminus:0,331803_1_2805016_0_SINGLE_bridge:0_ATminus:0, SymmetricSet [symIds=[175, 176]] SymmetricSet [symIds=[13630, 13392]] SymmetricSet [symIds=[331743, 331803]] SymmetricSet [symIds=[2805014, 2805016]] 

> <GraphJson>
{
  "graphId": 58258,
  "gVertices": [
    {
      "lstAPs": [
        {
          "id": 4618024,
          "atomPositionNumber": 0,
          "atomPositionNumberInMol": 0,
          "apClass": {
            "rule": "Xlig",
            "subClass": 0,
            "bndTyp": "SINGLE"
          },
          "dirVec": {
            "x": -2.3339,
            "y": -0.0087,
            "z": 0.8172
          }
        },
        {
          "id": 4618025,
          "atomPositionNumber": 0,
          "atomPositionNumberInMol": 0,
          "apClass": {
            "rule": "Xlig",
            "subClass": 0,
            "bndTyp": "SINGLE"
          },
          "dirVec": {
            "x": 2.336,
            "y": -5.0E-4,
            "z": 0.829
          }
        },
        {
          "id": 4618026,
          "atomPositionNumber": 0,
          "atomPositionNumberInMol": 0,
          "apClass": {
            "rule": "scaff",
            "subClass": 0,
            "bndTyp": "SINGLE"
          },
          "dirVec": {
            "x": -0.0095,
            "y": 0.0046,
            "z": -1.7113
          }
        }
      ],
      "lstSymAPs": [
        {
          "symIds": [
            0,
            1
          ]
        }
      ],
      "mol": {
        "atoms": [
          {
            "elSymbol": "Pt",
            "p3d": {
              "x": -0.0098,
              "y": 0.0049,
              "z": 0.6289
            }
          },
          {
            "elSymbol": "C",
            "p3d": {
              "x": -6.0E-4,
              "y": 0.0016,
              "z": 2.5609
            }
          },
          {
            "elSymbol": "O",
            "p3d": {
              "x": 0.0025,
              "y": -0.0041,
              "z": 3.6974
            }
          },
          {
            "elSymbol": "Du",
            "p3d": {
              "x": -0.007,
              "y": 1.0013,
              "z": 0.6372
            }
          },
          {
            "elSymbol": "Du",
            "p3d": {
              "x": -0.0014,
              "y": 0.9902,
              "z": 2.5698
            }
          }
        ],
        "bonds": [
          {
            "atomIds": [
              1,
              2
            ],
            "bo": "TRIPLE"
          },
          {
            "atomIds": [
              0,
              1
            ],
            "bo": "SINGLE"
          },
          {
            "atomIds": [
              3,
              0
            ],
            "bo": "SINGLE"
          },
          {
            "atomIds": [
              4,
              1
            ],
            "bo": "SINGLE"
          }
        ]
      },
      "vertexId": 173,
      "buildingBlockId": 0,
      "buildingBlockType": "SCAFFOLD",
      "isRCV": false,
      "properties": {
        "ATTACHMENT_POINTS": "1#Xlig:0:SINGLE:-2.3339%-0.0087%0.8172,Xlig:0:SINGLE:2.3360%-0.0005%0.8290,scaff:0:SINGLE:-0.0095%0.0046%-1.7113 "
      },
      "uniquefyingPropertyKeys": [],
      "allowedMutationTypes": [
        "DELETE",
        "EXTEND",
        "CHANGEBRANCH",
        "CHANGELINK",
        "ADDLINK",
        "DELETELINK",
        "DELETECHAIN"
      ],
      "vertexType": "MolecularFragment"
    },
    {
      "lstAPs": [
        {
          "id": 4618027,
          "atomPositionNumber": 0,
          "atomPositionNumberInMol": 5,
          "apClass": {
            "rule": "LPhosphineSubMSym",
            "subClass": 0,
            "bndTyp": "SINGLE"
          },
          "dirVec": {
            "x": 1.6990896281071761,
            "y": -0.022388909837196012,
            "z": -2.396120418214485
          }
        },
        {
          "id": 4618028,
          "atomPositionNumber": 0,
          "atomPositionNumberInMol": 5,
          "apClass": {
            "rule": "LPhosphineSubMSym",
            "subClass": 0,
            "bndTyp": "SINGLE"
          },
          "dirVec": {
            "x": -0.7974463454160869,
            "y": -1.5166607579844005,
            "z": -2.4042461021237207
          }
        },
        {
          "id": 4618029,
          "atomPositionNumber": 0,
          "atomPositionNumberInMol": 5,
          "apClass": {
            "rule": "LPhosphineSubM",
            "subClass": 0,
            "bndTyp": "SINGLE"
          },
          "dirVec": {
            "x": -0.7742387081003741,
            "y": 1.5297606753905255,
            "z": -2.410065538873874
          }
        },
        {
          "id": 4618030,
          "atomPositionNumber": 0,
          "atomPositionNumberInMol": 5,
          "apClass": {
            "rule": "MPhosphine",
            "subClass": 1,
            "bndTyp": "SINGLE"
          },
          "dirVec": {
            "x": -0.009797986516488381,
            "y": 0.004897986516489378,
            "z": 0.6131934862948514
          }
        }
      ],
      "lstSymAPs": [
        {
          "symIds": [
            0,
            1
          ]
        }
      ],
      "mol": {
        "atoms": [
          {
            "elSymbol": "P",
            "p3d": {
              "x": -0.009502013483511618,
              "y": 0.004602013483510622,
              "z": -1.6955934862948516
            }
          }
        ],
        "bonds": []
      },
      "vertexId": 174,
      "buildingBlockId": 38,
      "buildingBlockType": "FRAGMENT",
      "isRCV": false,
      "properties": {
        "ATTACHMENT_POINTS": "1#LPhosphineSubMSym:0:SINGLE:1.6991%-0.0224%-2.3961,LPhosphineSubMSym:0:SINGLE:-0.7974%-1.5167%-2.4042,LPhosphineSubM:0:SINGLE:-0.7742%1.5298%-2.4101,MPhosphine:1:SINGLE:-0.0098%0.0049%0.6132 "
      },
      "uniquefyingPropertyKeys": [],
      "allowedMutationTypes": [
        "DELETE",
        "EXTEND",
        "CHANGEBRANCH",
        "CHANGELINK",
        "ADDLINK",
        "DELETELINK",
        "DELETECHAIN"
      ],
      "vertexType": "MolecularFragment"
    },
    {
      "lstAPs": [
        {
          "id": 4618031,
          "atomPositionNumber": 0,
          "atomPositionNumberInMol": 6,
          "apClass": {
            "rule": "ATplus",
            "subClass": 0,
            "bndTyp": "ANY"
          },
          "dirVec": {
            "x": -0.7974463454160869,
            "y": -1.5166607579844005,
            "z": -2.4042461021237207
          }
        }
      ],
      "lstSymAPs": [],
      "mol": {
        "atoms": [
          {
            "elSymbol": "ATP",
            "p3d": {
              "x": -0.8063679812732594,
              "y": -1.5338855185925786,
              "z": -2.4122699438234907
            }
          }
        ],
        "bonds": []
      },
      "vertexId": 175,
      "buildingBlockId": 78,
      "buildingBlockType": "FRAGMENT",
      "isRCV": true,
      "properties": {
        "ATTACHMENT_POINTS": "1#ATplus:0:ANY:-0.7974%-1.5167%-2.4042 "
      },
      "uniquefyingPropertyKeys": [],
      "allowedMutationTypes": [
        "DELETE",
        "EXTEND",
        "CHANGEBRANCH",
        "CHANGELINK",
        "ADDLINK",
        "DELETELINK",
        "DELETECHAIN"
      ],
      "vertexType": "MolecularFragment"
    },
    {
      "lstAPs": [
        {
          "id": 4618032,
          "atomPositionNumber": 0,
          "atomPositionNumberInMol": 7,
          "apClass": {
            "rule": "ATplus",
            "subClass": 0,
            "bndTyp": "ANY"
          },
          "dirVec": {
            "x": 1.6990896281071761,
            "y": -0.022388909837196012,
            "z": -2.396120418214485
          }
        }
      ],
      "lstSymAPs": [],
      "mol": {
        "atoms": [
          {
            "elSymbol": "ATP",
            "p3d": {
              "x": 1.718510555115942,
              "y": -0.02269570564431036,
              "z": -2.4040830478337076
            }
          }
        ],
        "bonds": []
      },
      "vertexId": 176,
      "buildingBlockId": 78,
      "buildingBlockType": "FRAGMENT",
      "isRCV": true,
      "properties": {
        "ATTACHMENT_POINTS": "1#ATplus:0:ANY:1.6991%-0.0224%-2.3961 "
      },
      "uniquefyingPropertyKeys": [],
      "allowedMutationTypes": [
        "DELETE",
        "EXTEND",
        "CHANGEBRANCH",
        "CHANGELINK",
        "ADDLINK",
        "DELETELINK",
        "DELETECHAIN"
      ],
      "vertexType": "MolecularFragment"
    },
    {
      "lstAPs": [
        {
          "id": 4618033,
          "atomPositionNumber": 0,
          "atomPositionNumberInMol": 21,
          "apClass": {
            "rule": "Xlig",
            "subClass": 1,
            "bndTyp": "SINGLE"
          },
          "dirVec": {
            "x": -0.102,
            "y": 0.0185,
            "z": -1.0265
          }
        },
        {
          "id": 4618034,
          "atomPositionNumber": 0,
          "atomPositionNumberInMol": 21,
          "apClass": {
            "rule": "bridge",
            "subClass": 1,
            "bndTyp": "SINGLE"
          },
          "dirVec": {
            "x": -0.626,
            "y": 2.4866,
            "z": 0.7805
          }
        }
      ],
      "lstSymAPs": [],
      "mol": {
        "atoms": [
          {
            "elSymbol": "S",
            "p3d": {
              "x": -0.3267,
              "y": 2.3403,
              "z": -1.0022
            }
          }
        ],
        "bonds": []
      },
      "vertexId": 13630,
      "buildingBlockId": 73,
      "buildingBlockType": "FRAGMENT",
      "isRCV": false,
      "properties": {
        "ATTACHMENT_POINTS": "1#Xlig:1:SINGLE:-0.1020%0.0185%-1.0265,bridge:1:SINGLE:-0.6260%2.4866%0.7805 "
      },
      "uniquefyingPropertyKeys": [],
      "allowedMutationTypes": [
        "DELETE",
        "EXTEND",
        "CHANGEBRANCH",
        "CHANGELINK",
        "ADDLINK",
        "DELETELINK",
        "DELETECHAIN"
      ],
      "vertexType": "MolecularFragment"
    },
    {
      "lstAPs": [
        {
          "id": 4618035,
          "atomPositionNumber": 0,
          "atomPositionNumberInMol": 26,
          "apClass": {
            "rule": "Xlig",
            "subClass": 1,
            "bndTyp": "SINGLE"
          },
          "dirVec": {
            "x": -0.102,
            "y": 0.0185,
            "z": -1.0265
          }
        },
        {
          "id": 4618036,
          "atomPositionNumber": 0,
          "atomPositionNumberInMol": 26,
          "apClass": {
            "rule": "bridge",
            "subClass": 1,
            "bndTyp": "SINGLE"
          },
          "dirVec": {
            "x": -0.626,
            "y": 2.4866,
            "z": 0.7805
          }
        }
      ],
      "lstSymAPs": [],
      "mol": {
        "atoms": [
          {
            "elSymbol": "S",
            "p3d": {
              "x": -0.3267,
              "y": 2.3403,
              "z": -1.0022
            }
          }
        ],
        "bonds": []
      },
      "vertexId": 13392,
      "buildingBlockId": 73,
      "buildingBlockType": "FRAGMENT",
      "isRCV": false,
      "properties": {
        "ATTACHMENT_POINTS": "1#Xlig:1:SINGLE:-0.1020%0.0185%-1.0265,bridge:1:SINGLE:-0.6260%2.4866%0.7805 "
      },
      "uniquefyingPropertyKeys": [],
      "allowedMutationTypes": [
        "DELETE",
        "EXTEND",
        "CHANGEBRANCH",
        "CHANGELINK",
        "ADDLINK",
        "DELETELINK",
        "DELETECHAIN"
      ],
      "vertexType": "MolecularFragment"
    },
    {
      "lstAPs": [
        {
          "id": 4618037,
          "atomPositionNumber": 0,
          "atomPositionNumberInMol": 8,
          "apClass": {
            "rule": "SubRL",
            "subClass": 1,
            "bndTyp": "SINGLE"
          },
          "dirVec": {
            "x": 0.2857,
            "y": 0.39,
            "z": -0.6426
          }
        }
      ],
      "lstSymAPs": [],
      "mol": {
        "atoms": [
          {
            "elSymbol": "C",
            "p3d": {
              "x": 0.3842,
              "y": -0.0523,
              "z": 0.8329
            }
          },
          {
            "elSymbol": "C",
            "p3d": {
              "x": -0.6709,
              "y": 0.6882,
              "z": 1.6615
            }
          },
          {
            "elSymbol": "C",
            "p3d": {
              "x": 0.1554,
              "y": -1.558,
              "z": 0.9277
            }
          },
          {
            "elSymbol": "C",
            "p3d": {
              "x": 1.7886,
              "y": 0.2826,
              "z": 1.3761
            }
          },
          {
            "elSymbol": "H",
            "p3d": {
              "x": -0.5899,
              "y": 0.3841,
              "z": 2.6969
            }
          },
          {
            "elSymbol": "H",
            "p3d": {
              "x": 1.8617,
              "y": -0.0274,
              "z": 2.4067
            }
          },
          {
            "elSymbol": "H",
            "p3d": {
              "x": 0.2289,
              "y": -1.8635,
              "z": 1.9737
            }
          },
          {
            "elSymbol": "H",
            "p3d": {
              "x": 0.8983,
              "y": -2.0943,
              "z": 0.3332
            }
          },
          {
            "elSymbol": "H",
            "p3d": {
              "x": 2.5395,
              "y": -0.2409,
              "z": 0.7751
            }
          },
          {
            "elSymbol": "H",
            "p3d": {
              "x": 1.9553,
              "y": 1.3543,
              "z": 1.294
            }
          },
          {
            "elSymbol": "H",
            "p3d": {
              "x": -0.4937,
              "y": 1.7723,
              "z": 1.5856
            }
          },
          {
            "elSymbol": "H",
            "p3d": {
              "x": -1.6541,
              "y": 0.4601,
              "z": 1.2602
            }
          },
          {
            "elSymbol": "H",
            "p3d": {
              "x": -0.8514,
              "y": -1.792,
              "z": 0.5518
            }
          }
        ],
        "bonds": [
          {
            "atomIds": [
              0,
              1
            ],
            "bo": "SINGLE"
          },
          {
            "atomIds": [
              0,
              2
            ],
            "bo": "SINGLE"
          },
          {
            "atomIds": [
              0,
              3
            ],
            "bo": "SINGLE"
          },
          {
            "atomIds": [
              1,
              4
            ],
            "bo": "SINGLE"
          },
          {
            "atomIds": [
              3,
              5
            ],
            "bo": "SINGLE"
          },
          {
            "atomIds": [
              2,
              6
            ],
            "bo": "SINGLE"
          },
          {
            "atomIds": [
              2,
              7
            ],
            "bo": "SINGLE"
          },
          {
            "atomIds": [
              3,
              8
            ],
            "bo": "SINGLE"
          },
          {
            "atomIds": [
              3,
              9
            ],
            "bo": "SINGLE"
          },
          {
            "atomIds": [
              1,
              10
            ],
            "bo": "SINGLE"
          },
          {
            "atomIds": [
              1,
              11
            ],
            "bo": "SINGLE"
          },
          {
            "atomIds": [
              2,
              12
            ],
            "bo": "SINGLE"
          }
        ]
      },
      "vertexId": 13403,
      "buildingBlockId": 26,
      "buildingBlockType": "FRAGMENT",
      "isRCV": false,
      "properties": {
        "ATTACHMENT_POINTS": "1#SubRL:1:SINGLE:0.2857%0.3900%-0.6426 "
      },
      "uniquefyingPropertyKeys": [],
      "allowedMutationTypes": [
        "DELETE",
        "EXTEND",
        "CHANGEBRANCH",
        "CHANGELINK",
        "ADDLINK",
        "DELETELINK",
        "DELETECHAIN"
      ],
      "vertexType": "MolecularFragment"
    },
    {
      "lstAPs": [
        {
          "id": 4618038,
          "atomPositionNumber": 0,
          "atomPositionNumberInMol": 22,
          "apClass": {
            "rule": "bridge",
            "subClass": 0,
            "bndTyp": "SINGLE"
          },
          "dirVec": {
            "x": -1.0417,
            "y": -0.7693,
            "z": 0.07320000000000002
          }
        },
        {
          "id": 4618039,
          "atomPositionNumber": 0,
          "atomPositionNumberInMol": 22,
          "apClass": {
            "rule": "bridge",
            "subClass": 0,
            "bndTyp": "SINGLE"
          },
          "dirVec": {
            "x": 1.2664,
            "y": -1.9999999999997797E-4,
            "z": 0.2522
          }
        }
      ],
      "lstSymAPs": [
        {
          "symIds": [
            0,
            1
          ]
        }
      ],
      "mol": {
        "atoms": [
          {
            "elSymbol": "C",
            "p3d": {
              "x": 0.4112,
              "y": -1.2101,
              "z": -0.1993
            }
          },
          {
            "elSymbol": "H",
            "p3d": {
              "x": 0.6587,
              "y": -2.0933,
              "z": 0.3897
            }
          },
          {
            "elSymbol": "H",
            "p3d": {
              "x": 0.5577,
              "y": -1.4056,
              "z": -1.2616
            }
          }
        ],
        "bonds": [
          {
            "atomIds": [
              0,
              1
            ],
            "bo": "SINGLE"
          },
          {
            "atomIds": [
              0,
              2
            ],
            "bo": "SINGLE"
          }
        ]
      },
      "vertexId": 331743,
      "buildingBlockId": 66,
      "buildingBlockType": "FRAGMENT",
      "isRCV": false,
      "properties": {
        "ATTACHMENT_POINTS": "1#bridge:0:SINGLE:-1.0417%-0.7693%0.0732,bridge:0:SINGLE:1.2664%-0.0002%0.2522 "
      },
      "uniquefyingPropertyKeys": [],
      "allowedMutationTypes": [
        "DELETE",
        "EXTEND",
        "CHANGEBRANCH",
        "CHANGELINK",
        "ADDLINK",
        "DELETELINK",
        "DELETECHAIN"
      ],
      "vertexType": "MolecularFragment"
    },
    {
      "lstAPs": [
        {
          "id": 4618040,
          "atomPositionNumber": 0,
          "atomPositionNumberInMol": 27,
          "apClass": {
            "rule": "bridge",
            "subClass": 0,
            "bndTyp": "SINGLE"
          },
          "dirVec": {
            "x": -1.0417,
            "y": -0.7693,
            "z": 0.07320000000000002
          }
        },
        {
          "id": 4618041,
          "atomPositionNumber": 0,
          "atomPositionNumberInMol": 27,
          "apClass": {
            "rule": "bridge",
            "subClass": 0,
            "bndTyp": "SINGLE"
          },
          "dirVec": {
            "x": 1.2664,
            "y": -1.9999999999997797E-4,
            "z": 0.2522
          }
        }
      ],
      "lstSymAPs": [
        {
          "symIds": [
            0,
            1
          ]
        }
      ],
      "mol": {
        "atoms": [
          {
            "elSymbol": "C",
            "p3d": {
              "x": 0.4112,
              "y": -1.2101,
              "z": -0.1993
            }
          },
          {
            "elSymbol": "H",
            "p3d": {
              "x": 0.6587,
              "y": -2.0933,
              "z": 0.3897
            }
          },
          {
            "elSymbol": "H",
            "p3d": {
              "x": 0.5577,
              "y": -1.4056,
              "z": -1.2616
            }
          }
        ],
        "bonds": [
          {
            "atomIds": [
              0,
              1
            ],
            "bo": "SINGLE"
          },
          {
            "atomIds": [
              0,
              2
            ],
            "bo": "SINGLE"
          }
        ]
      },
      "vertexId": 331803,
      "buildingBlockId": 66,
      "buildingBlockType": "FRAGMENT",
      "isRCV": false,
      "properties": {
        "ATTACHMENT_POINTS": "1#bridge:0:SINGLE:-1.0417%-0.7693%0.0732,bridge:0:SINGLE:1.2664%-0.0002%0.2522 "
      },
      "uniquefyingPropertyKeys": [],
      "allowedMutationTypes": [
        "DELETE",
        "EXTEND",
        "CHANGEBRANCH",
        "CHANGELINK",
        "ADDLINK",
        "DELETELINK",
        "DELETECHAIN"
      ],
      "vertexType": "MolecularFragment"
    },
    {
      "lstAPs": [
        {
          "id": 4618260,
          "atomPositionNumber": 0,
          "atomPositionNumberInMol": 25,
          "apClass": {
            "rule": "ATminus",
            "subClass": 0,
            "bndTyp": "ANY"
          },
          "dirVec": {
            "x": 0.0109,
            "y": -0.0071,
            "z": 0.0026
          }
        }
      ],
      "lstSymAPs": [],
      "mol": {
        "atoms": [
          {
            "elSymbol": "ATM",
            "p3d": {
              "x": -0.0096,
              "y": 0.0045,
              "z": -0.0011
            }
          }
        ],
        "bonds": []
      },
      "vertexId": 2805014,
      "buildingBlockId": 79,
      "buildingBlockType": "FRAGMENT",
      "isRCV": true,
      "properties": {
        "ATTACHMENT_POINTS": "1#ATminus:0:ANY:0.0109%-0.0071%0.0026 "
      },
      "uniquefyingPropertyKeys": [],
      "allowedMutationTypes": [
        "DELETE",
        "EXTEND",
        "CHANGEBRANCH",
        "CHANGELINK",
        "ADDLINK",
        "DELETELINK",
        "DELETECHAIN"
      ],
      "vertexType": "MolecularFragment"
    },
    {
      "lstAPs": [
        {
          "id": 4618261,
          "atomPositionNumber": 0,
          "atomPositionNumberInMol": 30,
          "apClass": {
            "rule": "ATminus",
            "subClass": 0,
            "bndTyp": "ANY"
          },
          "dirVec": {
            "x": 0.0109,
            "y": -0.0071,
            "z": 0.0026
          }
        }
      ],
      "lstSymAPs": [],
      "mol": {
        "atoms": [
          {
            "elSymbol": "ATM",
            "p3d": {
              "x": -0.0096,
              "y": 0.0045,
              "z": -0.0011
            }
          }
        ],
        "bonds": []
      },
      "vertexId": 2805016,
      "buildingBlockId": 79,
      "buildingBlockType": "FRAGMENT",
      "isRCV": true,
      "properties": {
        "ATTACHMENT_POINTS": "1#ATminus:0:ANY:0.0109%-0.0071%0.0026 "
      },
      "uniquefyingPropertyKeys": [],
      "allowedMutationTypes": [
        "DELETE",
        "EXTEND",
        "CHANGEBRANCH",
        "CHANGELINK",
        "ADDLINK",
        "DELETELINK",
        "DELETECHAIN"
      ],
      "vertexType": "MolecularFragment"
    }
  ],
  "gEdges": [
    {
      "srcAPID": 4618026,
      "trgAPID": 4618030,
      "bondType": "SINGLE"
    },
    {
      "srcAPID": 4618028,
      "trgAPID": 4618031,
      "bondType": "SINGLE"
    },
    {
      "srcAPID": 4618027,
      "trgAPID": 4618032,
      "bondType": "SINGLE"
    },
    {
      "srcAPID": 4618025,
      "trgAPID": 4618033,
      "bondType": "SINGLE"
    },
    {
      "srcAPID": 4618024,
      "trgAPID": 4618035,
      "bondType": "SINGLE"
    },
    {
      "srcAPID": 4618029,
      "trgAPID": 4618037,
      "bondType": "SINGLE"
    },
    {
      "srcAPID": 4618034,
      "trgAPID": 4618038,
      "bondType": "SINGLE"
    },
    {
      "srcAPID": 4618036,
      "trgAPID": 4618040,
      "bondType": "SINGLE"
    },
    {
      "srcAPID": 4618039,
      "trgAPID": 4618260,
      "bondType": "SINGLE"
    },
    {
      "srcAPID": 4618041,
      "trgAPID": 4618261,
      "bondType": "SINGLE"
    }
  ],
  "gRings": [],
  "symVertices": [
    {
      "symIds": [
        175,
        176
      ]
    },
    {
      "symIds": [
        13630,
        13392
      ]
    },
    {
      "symIds": [
        331743,
        331803
      ]
    },
    {
      "symIds": [
        2805014,
        2805016
      ]
    }
  ]
}

> <SMILES>
[Pt](C#O)([P]([H])([H])C(C([H])([H])[H])(C([H])([H])[H])C([H])([H])[H])(SC([H])([H])[H])SC([H])([H])[H]

$$$$
