M30020318
  CDK     05082200293D

 33 34  0  0  0  0  0  0  0  0999 V2000
   -2.1889   -0.0017   -0.3499 Pt  0  0  0  0  0  0  0  0  0  0  0  0
   -4.1370   -0.0024   -0.2920 C   0  0  0  0  0  0  0  0  0  0  0  0
   -5.2779   -0.0027   -0.2248 O   0  0  0  0  0  0  0  0  0  0  0  0
    0.0787   -0.0007   -0.2512 P   0  0  0  0  0  0  0  0  0  0  0  0
    2.5315   -0.0038   -1.6183 C   0  0  0  0  0  0  0  0  0  0  0  0
    1.0358   -0.0051   -1.8722 C   0  0  0  0  0  0  0  0  0  0  0  0
    2.8776   -0.8911   -1.0695 H   0  0  0  0  0  0  0  0  0  0  0  0
    3.0772   -0.0064   -2.5753 H   0  0  0  0  0  0  0  0  0  0  0  0
    2.8769    0.8869   -1.0747 H   0  0  0  0  0  0  0  0  0  0  0  0
    0.7352    0.8818   -2.4722 H   0  0  0  0  0  0  0  0  0  0  0  0
    0.7358   -0.8958   -2.4670 H   0  0  0  0  0  0  0  0  0  0  0  0
   -2.0890   -2.3421   -0.2449 S   0  0  0  0  0  0  0  0  0  0  0  0
    0.4104   -1.5522    0.6485 C   0  0  0  0  0  0  0  0  0  0  0  0
   -0.5312   -2.5032    0.5988 C   0  0  0  0  0  0  0  0  0  0  0  0
    1.3551   -1.6585    1.1696 H   0  0  0  0  0  0  0  0  0  0  0  0
    0.1767   -4.8643    0.2236 C   0  0  0  0  0  0  0  0  0  0  0  0
   -0.3786   -3.8547    1.2276 C   0  0  0  0  0  0  0  0  0  0  0  0
    1.1466   -4.5464   -0.1766 H   0  0  0  0  0  0  0  0  0  0  0  0
    0.3137   -5.8465    0.6906 H   0  0  0  0  0  0  0  0  0  0  0  0
   -0.5029   -4.9995   -0.6292 H   0  0  0  0  0  0  0  0  0  0  0  0
   -1.3509   -4.2199    1.6292 H   0  0  0  0  0  0  0  0  0  0  0  0
    0.2919   -3.7952    2.1125 H   0  0  0  0  0  0  0  0  0  0  0  0
   -2.0907    2.3393   -0.2582 S   0  0  0  0  0  0  0  0  0  0  0  0
    0.4093    1.5562    0.6395 C   0  0  0  0  0  0  0  0  0  0  0  0
   -0.5329    2.5062    0.5844 C   0  0  0  0  0  0  0  0  0  0  0  0
    1.3540    1.6661    1.1599 H   0  0  0  0  0  0  0  0  0  0  0  0
    0.1732    4.8657    0.1954 C   0  0  0  0  0  0  0  0  0  0  0  0
   -0.3812    3.8615    1.2053 C   0  0  0  0  0  0  0  0  0  0  0  0
   -0.5068    4.9955   -0.6580 H   0  0  0  0  0  0  0  0  0  0  0  0
    0.3095    5.8507    0.6567 H   0  0  0  0  0  0  0  0  0  0  0  0
    1.1431    4.5463   -0.2032 H   0  0  0  0  0  0  0  0  0  0  0  0
    0.2896    3.8076    2.0904 H   0  0  0  0  0  0  0  0  0  0  0  0
   -1.3536    4.2283    1.6051 H   0  0  0  0  0  0  0  0  0  0  0  0
  2  3  3  0  0  0  0
  1  2  1  0  0  0  0
  1  4  1  0  0  0  0
  5  6  1  0  0  0  0
  5  7  1  0  0  0  0
  5  8  1  0  0  0  0
  5  9  1  0  0  0  0
  6 10  1  0  0  0  0
  6 11  1  0  0  0  0
  4  6  1  0  0  0  0
  1 12  1  0  0  0  0
 13 14  2  0  0  0  0
 13 15  1  0  0  0  0
 12 14  1  0  0  0  0
 16 17  1  0  0  0  0
 16 18  1  0  0  0  0
 16 19  1  0  0  0  0
 16 20  1  0  0  0  0
 17 21  1  0  0  0  0
 17 22  1  0  0  0  0
 14 17  1  0  0  0  0
  1 23  1  0  0  0  0
 24 25  2  0  0  0  0
 24 26  1  0  0  0  0
 23 25  1  0  0  0  0
 27 28  1  0  0  0  0
 27 29  1  0  0  0  0
 27 30  1  0  0  0  0
 27 31  1  0  0  0  0
 28 32  1  0  0  0  0
 28 33  1  0  0  0  0
 25 28  1  0  0  0  0
  4 24  1  0  0  0  0
  4 13  1  0  0  0  0
M  END
> <PM6_ENERGY>
-123.690

> <UID>
UHIPRNUFBIMUKK-BZLOGQBSNA-L

> <FITNESS>
1.14288

> <GCODE>
57691

> <GraphENC>
57691 2775000_1_0,2775001_39_1,2775002_79_1,2775003_79_1,2775004_74_1,2775005_74_1,2775006_25_1,2775007_72_1,2775008_72_1,2775009_80_1,2775010_80_1,2775011_25_1,2775012_25_1, 2775000_2_2775001_3_SINGLE_scaff:0_MPhosphine:1,2775001_1_2775002_0_SINGLE_LPhosphineSubMSym:0_ATplus:0,2775001_0_2775003_0_SINGLE_LPhosphineSubMSym:0_ATplus:0,2775000_1_2775004_0_SINGLE_Xlig:0_Xlig:1,2775000_0_2775005_0_SINGLE_Xlig:0_Xlig:1,2775001_2_2775006_0_SINGLE_LPhosphineSubM:0_SubRS:1,2775005_1_2775007_1_SINGLE_bridge:1_bridge:0,2775004_1_2775008_1_SINGLE_bridge:1_bridge:0,2775007_0_2775009_0_SINGLE_bridge:0_ATminus:0,2775008_0_2775010_0_SINGLE_bridge:0_ATminus:0,2775007_2_2775011_0_SINGLE_SubBridge:0_SubRS:1,2775008_2_2775012_0_SINGLE_SubBridge:0_SubRS:1, DENOPTIMRing [vertices=[2775002_79_1, 2775001_39_1, 2775000_1_0, 2775004_74_1, 2775008_72_1, 2775010_80_1]] DENOPTIMRing [vertices=[2775003_79_1, 2775001_39_1, 2775000_1_0, 2775005_74_1, 2775007_72_1, 2775009_80_1]] SymmetricSet [symIds=[2775002, 2775003]] SymmetricSet [symIds=[2775004, 2775005]] SymmetricSet [symIds=[2775007, 2775008]] SymmetricSet [symIds=[2775009, 2775010]] SymmetricSet [symIds=[2775011, 2775012]] 

> <GraphJson>
{
  "graphId": 57691,
  "gVertices": [
    {
      "lstAPs": [
        {
          "id": 4568902,
          "atomPositionNumber": 0,
          "atomPositionNumberInMol": -1,
          "apClass": {
            "rule": "Xlig",
            "subClass": 0,
            "bndTyp": "SINGLE"
          },
          "dirVec": {
            "x": -2.3339,
            "y": -0.0087,
            "z": 0.8172
          }
        },
        {
          "id": 4568903,
          "atomPositionNumber": 0,
          "atomPositionNumberInMol": -1,
          "apClass": {
            "rule": "Xlig",
            "subClass": 0,
            "bndTyp": "SINGLE"
          },
          "dirVec": {
            "x": 2.336,
            "y": -5.0E-4,
            "z": 0.829
          }
        },
        {
          "id": 4568904,
          "atomPositionNumber": 0,
          "atomPositionNumberInMol": -1,
          "apClass": {
            "rule": "scaff",
            "subClass": 0,
            "bndTyp": "SINGLE"
          },
          "dirVec": {
            "x": -0.0095,
            "y": 0.0046,
            "z": -1.7113
          }
        }
      ],
      "lstSymAPs": [
        {
          "symIds": [
            0,
            1
          ]
        }
      ],
      "mol": {
        "atoms": [
          {
            "elSymbol": "Pt",
            "p3d": {
              "x": -0.0098,
              "y": 0.0049,
              "z": 0.6289
            }
          },
          {
            "elSymbol": "C",
            "p3d": {
              "x": -6.0E-4,
              "y": 0.0016,
              "z": 2.5609
            }
          },
          {
            "elSymbol": "O",
            "p3d": {
              "x": 0.0025,
              "y": -0.0041,
              "z": 3.6974
            }
          },
          {
            "elSymbol": "Du",
            "p3d": {
              "x": -0.007,
              "y": 1.0013,
              "z": 0.6372
            }
          },
          {
            "elSymbol": "Du",
            "p3d": {
              "x": -0.0014,
              "y": 0.9902,
              "z": 2.5698
            }
          }
        ],
        "bonds": [
          {
            "atomIds": [
              1,
              2
            ],
            "bo": "TRIPLE"
          },
          {
            "atomIds": [
              0,
              1
            ],
            "bo": "SINGLE"
          },
          {
            "atomIds": [
              3,
              0
            ],
            "bo": "SINGLE"
          },
          {
            "atomIds": [
              4,
              1
            ],
            "bo": "SINGLE"
          }
        ]
      },
      "vertexId": 2775000,
      "buildingBlockId": 0,
      "buildingBlockType": "SCAFFOLD",
      "isRCV": false,
      "properties": {
        "ATTACHMENT_POINTS": "1#Xlig:0:SINGLE:-2.3339%-0.0087%0.8172,Xlig:0:SINGLE:2.3360%-0.0005%0.8290,scaff:0:SINGLE:-0.0095%0.0046%-1.7113 ",
        "OLDVERTEXID": 173
      },
      "uniquefyingPropertyKeys": [],
      "allowedMutationTypes": [
        "DELETE",
        "EXTEND",
        "CHANGEBRANCH",
        "CHANGELINK",
        "ADDLINK",
        "DELETELINK",
        "DELETECHAIN"
      ],
      "vertexType": "MolecularFragment"
    },
    {
      "lstAPs": [
        {
          "id": 4568905,
          "atomPositionNumber": 0,
          "atomPositionNumberInMol": -1,
          "apClass": {
            "rule": "LPhosphineSubMSym",
            "subClass": 0,
            "bndTyp": "SINGLE"
          },
          "dirVec": {
            "x": 1.6990896281071761,
            "y": -0.022388909837196012,
            "z": -2.396120418214485
          }
        },
        {
          "id": 4568906,
          "atomPositionNumber": 0,
          "atomPositionNumberInMol": -1,
          "apClass": {
            "rule": "LPhosphineSubMSym",
            "subClass": 0,
            "bndTyp": "SINGLE"
          },
          "dirVec": {
            "x": -0.7974463454160869,
            "y": -1.5166607579844005,
            "z": -2.4042461021237207
          }
        },
        {
          "id": 4568907,
          "atomPositionNumber": 0,
          "atomPositionNumberInMol": -1,
          "apClass": {
            "rule": "LPhosphineSubM",
            "subClass": 0,
            "bndTyp": "SINGLE"
          },
          "dirVec": {
            "x": -0.7742387081003741,
            "y": 1.5297606753905255,
            "z": -2.410065538873874
          }
        },
        {
          "id": 4568908,
          "atomPositionNumber": 0,
          "atomPositionNumberInMol": -1,
          "apClass": {
            "rule": "MPhosphine",
            "subClass": 1,
            "bndTyp": "SINGLE"
          },
          "dirVec": {
            "x": -0.009797986516488381,
            "y": 0.004897986516489378,
            "z": 0.6131934862948514
          }
        }
      ],
      "lstSymAPs": [
        {
          "symIds": [
            0,
            1
          ]
        }
      ],
      "mol": {
        "atoms": [
          {
            "elSymbol": "P",
            "p3d": {
              "x": -0.009502013483511618,
              "y": 0.004602013483510622,
              "z": -1.6955934862948516
            }
          }
        ],
        "bonds": []
      },
      "vertexId": 2775001,
      "buildingBlockId": 38,
      "buildingBlockType": "FRAGMENT",
      "isRCV": false,
      "properties": {
        "ATTACHMENT_POINTS": "1#LPhosphineSubMSym:0:SINGLE:1.6991%-0.0224%-2.3961,LPhosphineSubMSym:0:SINGLE:-0.7974%-1.5167%-2.4042,LPhosphineSubM:0:SINGLE:-0.7742%1.5298%-2.4101,MPhosphine:1:SINGLE:-0.0098%0.0049%0.6132 ",
        "OLDVERTEXID": 174
      },
      "uniquefyingPropertyKeys": [],
      "allowedMutationTypes": [
        "DELETE",
        "EXTEND",
        "CHANGEBRANCH",
        "CHANGELINK",
        "ADDLINK",
        "DELETELINK",
        "DELETECHAIN"
      ],
      "vertexType": "MolecularFragment"
    },
    {
      "lstAPs": [
        {
          "id": 4568909,
          "atomPositionNumber": 0,
          "atomPositionNumberInMol": -1,
          "apClass": {
            "rule": "ATplus",
            "subClass": 0,
            "bndTyp": "ANY"
          },
          "dirVec": {
            "x": -0.7974463454160869,
            "y": -1.5166607579844005,
            "z": -2.4042461021237207
          }
        }
      ],
      "lstSymAPs": [],
      "mol": {
        "atoms": [
          {
            "elSymbol": "ATP",
            "p3d": {
              "x": -0.8063679812732594,
              "y": -1.5338855185925786,
              "z": -2.4122699438234907
            }
          }
        ],
        "bonds": []
      },
      "vertexId": 2775002,
      "buildingBlockId": 78,
      "buildingBlockType": "FRAGMENT",
      "isRCV": true,
      "properties": {
        "ATTACHMENT_POINTS": "1#ATplus:0:ANY:-0.7974%-1.5167%-2.4042 ",
        "OLDVERTEXID": 175
      },
      "uniquefyingPropertyKeys": [],
      "allowedMutationTypes": [
        "DELETE",
        "EXTEND",
        "CHANGEBRANCH",
        "CHANGELINK",
        "ADDLINK",
        "DELETELINK",
        "DELETECHAIN"
      ],
      "vertexType": "MolecularFragment"
    },
    {
      "lstAPs": [
        {
          "id": 4568910,
          "atomPositionNumber": 0,
          "atomPositionNumberInMol": -1,
          "apClass": {
            "rule": "ATplus",
            "subClass": 0,
            "bndTyp": "ANY"
          },
          "dirVec": {
            "x": 1.6990896281071761,
            "y": -0.022388909837196012,
            "z": -2.396120418214485
          }
        }
      ],
      "lstSymAPs": [],
      "mol": {
        "atoms": [
          {
            "elSymbol": "ATP",
            "p3d": {
              "x": 1.718510555115942,
              "y": -0.02269570564431036,
              "z": -2.4040830478337076
            }
          }
        ],
        "bonds": []
      },
      "vertexId": 2775003,
      "buildingBlockId": 78,
      "buildingBlockType": "FRAGMENT",
      "isRCV": true,
      "properties": {
        "ATTACHMENT_POINTS": "1#ATplus:0:ANY:1.6991%-0.0224%-2.3961 ",
        "OLDVERTEXID": 176
      },
      "uniquefyingPropertyKeys": [],
      "allowedMutationTypes": [
        "DELETE",
        "EXTEND",
        "CHANGEBRANCH",
        "CHANGELINK",
        "ADDLINK",
        "DELETELINK",
        "DELETECHAIN"
      ],
      "vertexType": "MolecularFragment"
    },
    {
      "lstAPs": [
        {
          "id": 4568911,
          "atomPositionNumber": 0,
          "atomPositionNumberInMol": -1,
          "apClass": {
            "rule": "Xlig",
            "subClass": 1,
            "bndTyp": "SINGLE"
          },
          "dirVec": {
            "x": -0.102,
            "y": 0.0185,
            "z": -1.0265
          }
        },
        {
          "id": 4568912,
          "atomPositionNumber": 0,
          "atomPositionNumberInMol": -1,
          "apClass": {
            "rule": "bridge",
            "subClass": 1,
            "bndTyp": "SINGLE"
          },
          "dirVec": {
            "x": -0.626,
            "y": 2.4866,
            "z": 0.7805
          }
        }
      ],
      "lstSymAPs": [],
      "mol": {
        "atoms": [
          {
            "elSymbol": "S",
            "p3d": {
              "x": -0.3267,
              "y": 2.3403,
              "z": -1.0022
            }
          }
        ],
        "bonds": []
      },
      "vertexId": 2775004,
      "buildingBlockId": 73,
      "buildingBlockType": "FRAGMENT",
      "isRCV": false,
      "properties": {
        "ATTACHMENT_POINTS": "1#Xlig:1:SINGLE:-0.1020%0.0185%-1.0265,bridge:1:SINGLE:-0.6260%2.4866%0.7805 ",
        "OLDVERTEXID": 13579
      },
      "uniquefyingPropertyKeys": [],
      "allowedMutationTypes": [
        "DELETE",
        "EXTEND",
        "CHANGEBRANCH",
        "CHANGELINK",
        "ADDLINK",
        "DELETELINK",
        "DELETECHAIN"
      ],
      "vertexType": "MolecularFragment"
    },
    {
      "lstAPs": [
        {
          "id": 4568913,
          "atomPositionNumber": 0,
          "atomPositionNumberInMol": -1,
          "apClass": {
            "rule": "Xlig",
            "subClass": 1,
            "bndTyp": "SINGLE"
          },
          "dirVec": {
            "x": -0.102,
            "y": 0.0185,
            "z": -1.0265
          }
        },
        {
          "id": 4568914,
          "atomPositionNumber": 0,
          "atomPositionNumberInMol": -1,
          "apClass": {
            "rule": "bridge",
            "subClass": 1,
            "bndTyp": "SINGLE"
          },
          "dirVec": {
            "x": -0.626,
            "y": 2.4866,
            "z": 0.7805
          }
        }
      ],
      "lstSymAPs": [],
      "mol": {
        "atoms": [
          {
            "elSymbol": "S",
            "p3d": {
              "x": -0.3267,
              "y": 2.3403,
              "z": -1.0022
            }
          }
        ],
        "bonds": []
      },
      "vertexId": 2775005,
      "buildingBlockId": 73,
      "buildingBlockType": "FRAGMENT",
      "isRCV": false,
      "properties": {
        "ATTACHMENT_POINTS": "1#Xlig:1:SINGLE:-0.1020%0.0185%-1.0265,bridge:1:SINGLE:-0.6260%2.4866%0.7805 ",
        "OLDVERTEXID": 13392
      },
      "uniquefyingPropertyKeys": [],
      "allowedMutationTypes": [
        "DELETE",
        "EXTEND",
        "CHANGEBRANCH",
        "CHANGELINK",
        "ADDLINK",
        "DELETELINK",
        "DELETECHAIN"
      ],
      "vertexType": "MolecularFragment"
    },
    {
      "lstAPs": [
        {
          "id": 4568915,
          "atomPositionNumber": 1,
          "atomPositionNumberInMol": -1,
          "apClass": {
            "rule": "SubRS",
            "subClass": 1,
            "bndTyp": "SINGLE"
          },
          "dirVec": {
            "x": 0.2985,
            "y": 0.384,
            "z": -0.6258
          }
        }
      ],
      "lstSymAPs": [],
      "mol": {
        "atoms": [
          {
            "elSymbol": "C",
            "p3d": {
              "x": -1.0244,
              "y": -0.2225,
              "z": 1.3991
            }
          },
          {
            "elSymbol": "C",
            "p3d": {
              "x": 0.3973,
              "y": -0.042,
              "z": 0.8195
            }
          },
          {
            "elSymbol": "H",
            "p3d": {
              "x": -1.5635,
              "y": -0.9908,
              "z": 0.8263
            }
          },
          {
            "elSymbol": "H",
            "p3d": {
              "x": -0.941,
              "y": -0.535,
              "z": 2.446
            }
          },
          {
            "elSymbol": "H",
            "p3d": {
              "x": -1.5586,
              "y": 0.7335,
              "z": 1.3382
            }
          },
          {
            "elSymbol": "H",
            "p3d": {
              "x": 0.9335,
              "y": 0.7221,
              "z": 1.4011
            }
          },
          {
            "elSymbol": "H",
            "p3d": {
              "x": 0.927,
              "y": -1.0102,
              "z": 0.9001
            }
          }
        ],
        "bonds": [
          {
            "atomIds": [
              0,
              1
            ],
            "bo": "SINGLE"
          },
          {
            "atomIds": [
              0,
              2
            ],
            "bo": "SINGLE"
          },
          {
            "atomIds": [
              0,
              3
            ],
            "bo": "SINGLE"
          },
          {
            "atomIds": [
              0,
              4
            ],
            "bo": "SINGLE"
          },
          {
            "atomIds": [
              1,
              5
            ],
            "bo": "SINGLE"
          },
          {
            "atomIds": [
              1,
              6
            ],
            "bo": "SINGLE"
          }
        ]
      },
      "vertexId": 2775006,
      "buildingBlockId": 24,
      "buildingBlockType": "FRAGMENT",
      "isRCV": false,
      "properties": {
        "ATTACHMENT_POINTS": "2#SubRS:1:SINGLE:0.2985%0.3840%-0.6258 ",
        "OLDVERTEXID": 13400
      },
      "uniquefyingPropertyKeys": [],
      "allowedMutationTypes": [
        "DELETE",
        "EXTEND",
        "CHANGEBRANCH",
        "CHANGELINK",
        "ADDLINK",
        "DELETELINK",
        "DELETECHAIN"
      ],
      "vertexType": "MolecularFragment"
    },
    {
      "lstAPs": [
        {
          "id": 4568916,
          "atomPositionNumber": 0,
          "atomPositionNumberInMol": -1,
          "apClass": {
            "rule": "bridge",
            "subClass": 0,
            "bndTyp": "SINGLE"
          },
          "dirVec": {
            "x": 1.9789000000000003,
            "y": 0.17000000000000004,
            "z": 0.0
          }
        },
        {
          "id": 4568917,
          "atomPositionNumber": 1,
          "atomPositionNumberInMol": -1,
          "apClass": {
            "rule": "bridge",
            "subClass": 0,
            "bndTyp": "SINGLE"
          },
          "dirVec": {
            "x": -0.3006,
            "y": -1.4852,
            "z": 0.0
          }
        },
        {
          "id": 4568918,
          "atomPositionNumber": 1,
          "atomPositionNumberInMol": -1,
          "apClass": {
            "rule": "SubBridge",
            "subClass": 0,
            "bndTyp": "SINGLE"
          },
          "dirVec": {
            "x": -1.8343,
            "y": 0.6268,
            "z": 0.0
          }
        }
      ],
      "lstSymAPs": [],
      "mol": {
        "atoms": [
          {
            "elSymbol": "C",
            "p3d": {
              "x": 0.6023,
              "y": 0.7833,
              "z": 0.0
            }
          },
          {
            "elSymbol": "C",
            "p3d": {
              "x": -0.4578,
              "y": 0.0135,
              "z": 0.0
            }
          },
          {
            "elSymbol": "H",
            "p3d": {
              "x": 0.4897,
              "y": 1.8574,
              "z": 0.0
            }
          }
        ],
        "bonds": [
          {
            "atomIds": [
              0,
              1
            ],
            "bo": "DOUBLE"
          },
          {
            "atomIds": [
              0,
              2
            ],
            "bo": "SINGLE"
          }
        ]
      },
      "vertexId": 2775007,
      "buildingBlockId": 71,
      "buildingBlockType": "FRAGMENT",
      "isRCV": false,
      "properties": {
        "ATTACHMENT_POINTS": "1#bridge:0:SINGLE:1.9789%0.1700%0.0000 2#bridge:0:SINGLE:-0.3006%-1.4852%0.0000,SubBridge:0:SINGLE:-1.8343%0.6268%0.0000 ",
        "OLDVERTEXID": 330942
      },
      "uniquefyingPropertyKeys": [],
      "allowedMutationTypes": [
        "DELETE",
        "EXTEND",
        "CHANGEBRANCH",
        "CHANGELINK",
        "ADDLINK",
        "DELETELINK",
        "DELETECHAIN"
      ],
      "vertexType": "MolecularFragment"
    },
    {
      "lstAPs": [
        {
          "id": 4568919,
          "atomPositionNumber": 0,
          "atomPositionNumberInMol": -1,
          "apClass": {
            "rule": "bridge",
            "subClass": 0,
            "bndTyp": "SINGLE"
          },
          "dirVec": {
            "x": 1.9789000000000003,
            "y": 0.17000000000000004,
            "z": 0.0
          }
        },
        {
          "id": 4568920,
          "atomPositionNumber": 1,
          "atomPositionNumberInMol": -1,
          "apClass": {
            "rule": "bridge",
            "subClass": 0,
            "bndTyp": "SINGLE"
          },
          "dirVec": {
            "x": -0.3006,
            "y": -1.4852,
            "z": 0.0
          }
        },
        {
          "id": 4568921,
          "atomPositionNumber": 1,
          "atomPositionNumberInMol": -1,
          "apClass": {
            "rule": "SubBridge",
            "subClass": 0,
            "bndTyp": "SINGLE"
          },
          "dirVec": {
            "x": -1.8343,
            "y": 0.6268,
            "z": 0.0
          }
        }
      ],
      "lstSymAPs": [],
      "mol": {
        "atoms": [
          {
            "elSymbol": "C",
            "p3d": {
              "x": 0.6023,
              "y": 0.7833,
              "z": 0.0
            }
          },
          {
            "elSymbol": "C",
            "p3d": {
              "x": -0.4578,
              "y": 0.0135,
              "z": 0.0
            }
          },
          {
            "elSymbol": "H",
            "p3d": {
              "x": 0.4897,
              "y": 1.8574,
              "z": 0.0
            }
          }
        ],
        "bonds": [
          {
            "atomIds": [
              0,
              1
            ],
            "bo": "DOUBLE"
          },
          {
            "atomIds": [
              0,
              2
            ],
            "bo": "SINGLE"
          }
        ]
      },
      "vertexId": 2775008,
      "buildingBlockId": 71,
      "buildingBlockType": "FRAGMENT",
      "isRCV": false,
      "properties": {
        "ATTACHMENT_POINTS": "1#bridge:0:SINGLE:1.9789%0.1700%0.0000 2#bridge:0:SINGLE:-0.3006%-1.4852%0.0000,SubBridge:0:SINGLE:-1.8343%0.6268%0.0000 ",
        "OLDVERTEXID": 330653
      },
      "uniquefyingPropertyKeys": [],
      "allowedMutationTypes": [
        "DELETE",
        "EXTEND",
        "CHANGEBRANCH",
        "CHANGELINK",
        "ADDLINK",
        "DELETELINK",
        "DELETECHAIN"
      ],
      "vertexType": "MolecularFragment"
    },
    {
      "lstAPs": [
        {
          "id": 4568922,
          "atomPositionNumber": 0,
          "atomPositionNumberInMol": -1,
          "apClass": {
            "rule": "ATminus",
            "subClass": 0,
            "bndTyp": "ANY"
          },
          "dirVec": {
            "x": 0.0109,
            "y": -0.0071,
            "z": 0.0026
          }
        }
      ],
      "lstSymAPs": [],
      "mol": {
        "atoms": [
          {
            "elSymbol": "ATM",
            "p3d": {
              "x": -0.0096,
              "y": 0.0045,
              "z": -0.0011
            }
          }
        ],
        "bonds": []
      },
      "vertexId": 2775009,
      "buildingBlockId": 79,
      "buildingBlockType": "FRAGMENT",
      "isRCV": true,
      "properties": {
        "ATTACHMENT_POINTS": "1#ATminus:0:ANY:0.0109%-0.0071%0.0026 ",
        "OLDVERTEXID": 2773787
      },
      "uniquefyingPropertyKeys": [],
      "allowedMutationTypes": [
        "DELETE",
        "EXTEND",
        "CHANGEBRANCH",
        "CHANGELINK",
        "ADDLINK",
        "DELETELINK",
        "DELETECHAIN"
      ],
      "vertexType": "MolecularFragment"
    },
    {
      "lstAPs": [
        {
          "id": 4568923,
          "atomPositionNumber": 0,
          "atomPositionNumberInMol": -1,
          "apClass": {
            "rule": "ATminus",
            "subClass": 0,
            "bndTyp": "ANY"
          },
          "dirVec": {
            "x": 0.0109,
            "y": -0.0071,
            "z": 0.0026
          }
        }
      ],
      "lstSymAPs": [],
      "mol": {
        "atoms": [
          {
            "elSymbol": "ATM",
            "p3d": {
              "x": -0.0096,
              "y": 0.0045,
              "z": -0.0011
            }
          }
        ],
        "bonds": []
      },
      "vertexId": 2775010,
      "buildingBlockId": 79,
      "buildingBlockType": "FRAGMENT",
      "isRCV": true,
      "properties": {
        "ATTACHMENT_POINTS": "1#ATminus:0:ANY:0.0109%-0.0071%0.0026 ",
        "OLDVERTEXID": 2774586
      },
      "uniquefyingPropertyKeys": [],
      "allowedMutationTypes": [
        "DELETE",
        "EXTEND",
        "CHANGEBRANCH",
        "CHANGELINK",
        "ADDLINK",
        "DELETELINK",
        "DELETECHAIN"
      ],
      "vertexType": "MolecularFragment"
    },
    {
      "lstAPs": [
        {
          "id": 4568924,
          "atomPositionNumber": 1,
          "atomPositionNumberInMol": -1,
          "apClass": {
            "rule": "SubRS",
            "subClass": 1,
            "bndTyp": "SINGLE"
          },
          "dirVec": {
            "x": 0.2985,
            "y": 0.384,
            "z": -0.6258
          }
        }
      ],
      "lstSymAPs": [],
      "mol": {
        "atoms": [
          {
            "elSymbol": "C",
            "p3d": {
              "x": -1.0244,
              "y": -0.2225,
              "z": 1.3991
            }
          },
          {
            "elSymbol": "C",
            "p3d": {
              "x": 0.3973,
              "y": -0.042,
              "z": 0.8195
            }
          },
          {
            "elSymbol": "H",
            "p3d": {
              "x": -1.5635,
              "y": -0.9908,
              "z": 0.8263
            }
          },
          {
            "elSymbol": "H",
            "p3d": {
              "x": -0.941,
              "y": -0.535,
              "z": 2.446
            }
          },
          {
            "elSymbol": "H",
            "p3d": {
              "x": -1.5586,
              "y": 0.7335,
              "z": 1.3382
            }
          },
          {
            "elSymbol": "H",
            "p3d": {
              "x": 0.9335,
              "y": 0.7221,
              "z": 1.4011
            }
          },
          {
            "elSymbol": "H",
            "p3d": {
              "x": 0.927,
              "y": -1.0102,
              "z": 0.9001
            }
          }
        ],
        "bonds": [
          {
            "atomIds": [
              0,
              1
            ],
            "bo": "SINGLE"
          },
          {
            "atomIds": [
              0,
              2
            ],
            "bo": "SINGLE"
          },
          {
            "atomIds": [
              0,
              3
            ],
            "bo": "SINGLE"
          },
          {
            "atomIds": [
              0,
              4
            ],
            "bo": "SINGLE"
          },
          {
            "atomIds": [
              1,
              5
            ],
            "bo": "SINGLE"
          },
          {
            "atomIds": [
              1,
              6
            ],
            "bo": "SINGLE"
          }
        ]
      },
      "vertexId": 2775011,
      "buildingBlockId": 24,
      "buildingBlockType": "FRAGMENT",
      "isRCV": false,
      "properties": {
        "ATTACHMENT_POINTS": "2#SubRS:1:SINGLE:0.2985%0.3840%-0.6258 ",
        "OLDVERTEXID": 2773797
      },
      "uniquefyingPropertyKeys": [],
      "allowedMutationTypes": [
        "DELETE",
        "EXTEND",
        "CHANGEBRANCH",
        "CHANGELINK",
        "ADDLINK",
        "DELETELINK",
        "DELETECHAIN"
      ],
      "vertexType": "MolecularFragment"
    },
    {
      "lstAPs": [
        {
          "id": 4568925,
          "atomPositionNumber": 1,
          "atomPositionNumberInMol": -1,
          "apClass": {
            "rule": "SubRS",
            "subClass": 1,
            "bndTyp": "SINGLE"
          },
          "dirVec": {
            "x": 0.2985,
            "y": 0.384,
            "z": -0.6258
          }
        }
      ],
      "lstSymAPs": [],
      "mol": {
        "atoms": [
          {
            "elSymbol": "C",
            "p3d": {
              "x": -1.0244,
              "y": -0.2225,
              "z": 1.3991
            }
          },
          {
            "elSymbol": "C",
            "p3d": {
              "x": 0.3973,
              "y": -0.042,
              "z": 0.8195
            }
          },
          {
            "elSymbol": "H",
            "p3d": {
              "x": -1.5635,
              "y": -0.9908,
              "z": 0.8263
            }
          },
          {
            "elSymbol": "H",
            "p3d": {
              "x": -0.941,
              "y": -0.535,
              "z": 2.446
            }
          },
          {
            "elSymbol": "H",
            "p3d": {
              "x": -1.5586,
              "y": 0.7335,
              "z": 1.3382
            }
          },
          {
            "elSymbol": "H",
            "p3d": {
              "x": 0.9335,
              "y": 0.7221,
              "z": 1.4011
            }
          },
          {
            "elSymbol": "H",
            "p3d": {
              "x": 0.927,
              "y": -1.0102,
              "z": 0.9001
            }
          }
        ],
        "bonds": [
          {
            "atomIds": [
              0,
              1
            ],
            "bo": "SINGLE"
          },
          {
            "atomIds": [
              0,
              2
            ],
            "bo": "SINGLE"
          },
          {
            "atomIds": [
              0,
              3
            ],
            "bo": "SINGLE"
          },
          {
            "atomIds": [
              0,
              4
            ],
            "bo": "SINGLE"
          },
          {
            "atomIds": [
              1,
              5
            ],
            "bo": "SINGLE"
          },
          {
            "atomIds": [
              1,
              6
            ],
            "bo": "SINGLE"
          }
        ]
      },
      "vertexId": 2775012,
      "buildingBlockId": 24,
      "buildingBlockType": "FRAGMENT",
      "isRCV": false,
      "properties": {
        "ATTACHMENT_POINTS": "2#SubRS:1:SINGLE:0.2985%0.3840%-0.6258 ",
        "OLDVERTEXID": 2774587
      },
      "uniquefyingPropertyKeys": [],
      "allowedMutationTypes": [
        "DELETE",
        "EXTEND",
        "CHANGEBRANCH",
        "CHANGELINK",
        "ADDLINK",
        "DELETELINK",
        "DELETECHAIN"
      ],
      "vertexType": "MolecularFragment"
    }
  ],
  "gEdges": [
    {
      "srcAPID": 4568904,
      "trgAPID": 4568908,
      "bondType": "SINGLE"
    },
    {
      "srcAPID": 4568906,
      "trgAPID": 4568909,
      "bondType": "SINGLE"
    },
    {
      "srcAPID": 4568905,
      "trgAPID": 4568910,
      "bondType": "SINGLE"
    },
    {
      "srcAPID": 4568903,
      "trgAPID": 4568911,
      "bondType": "SINGLE"
    },
    {
      "srcAPID": 4568902,
      "trgAPID": 4568913,
      "bondType": "SINGLE"
    },
    {
      "srcAPID": 4568907,
      "trgAPID": 4568915,
      "bondType": "SINGLE"
    },
    {
      "srcAPID": 4568914,
      "trgAPID": 4568917,
      "bondType": "SINGLE"
    },
    {
      "srcAPID": 4568912,
      "trgAPID": 4568920,
      "bondType": "SINGLE"
    },
    {
      "srcAPID": 4568916,
      "trgAPID": 4568922,
      "bondType": "SINGLE"
    },
    {
      "srcAPID": 4568919,
      "trgAPID": 4568923,
      "bondType": "SINGLE"
    },
    {
      "srcAPID": 4568918,
      "trgAPID": 4568924,
      "bondType": "SINGLE"
    },
    {
      "srcAPID": 4568921,
      "trgAPID": 4568925,
      "bondType": "SINGLE"
    }
  ],
  "gRings": [
    {
      "vertices": [
        2775002,
        2775001,
        2775000,
        2775004,
        2775008,
        2775010
      ],
      "bndTyp": "SINGLE"
    },
    {
      "vertices": [
        2775003,
        2775001,
        2775000,
        2775005,
        2775007,
        2775009
      ],
      "bndTyp": "SINGLE"
    }
  ],
  "symVertices": [
    {
      "symIds": [
        2775002,
        2775003
      ]
    },
    {
      "symIds": [
        2775004,
        2775005
      ]
    },
    {
      "symIds": [
        2775007,
        2775008
      ]
    },
    {
      "symIds": [
        2775009,
        2775010
      ]
    },
    {
      "symIds": [
        2775011,
        2775012
      ]
    }
  ]
}

> <SMILES>
[Pt]12(C#O)[P](C(C([H])([H])[H])([H])[H])(C(=C(S1)C(C([H])([H])[H])([H])[H])[H])C(=C(S2)C(C([H])([H])[H])([H])[H])[H]

$$$$
