M30091205
  CDK     05082207053D

 48 52  0  0  0  0  0  0  0  0999 V2000
   -2.1695   -0.0590    0.5895 Pt  0  0  0  0  0  0  0  0  0  0  0  0
   -4.1009   -0.2214    0.8710 C   0  0  0  0  0  0  0  0  0  0  0  0
   -5.2263   -0.3342    1.0249 O   0  0  0  0  0  0  0  0  0  0  0  0
    0.0538    0.0723    0.2450 P   0  0  0  0  0  0  0  0  0  0  0  0
    0.5080    1.2524   -0.9550 N   0  0  1  0  0  0  0  0  0  0  0  0
    1.4518    0.6306   -1.8312 C   0  0  0  0  0  0  0  0  0  0  0  0
    1.9737    1.2384   -2.5574 H   0  0  0  0  0  0  0  0  0  0  0  0
    1.5738   -0.7205   -1.6627 C   0  0  0  0  0  0  0  0  0  0  0  0
    2.2176   -1.3805   -2.2275 H   0  0  0  0  0  0  0  0  0  0  0  0
    0.7491   -1.2663   -0.6298 N   0  0  2  0  0  0  0  0  0  0  0  0
    2.0952   -0.5534    2.1154 C   0  0  0  0  0  0  0  0  0  0  0  0
    0.9520    0.4214    1.8865 C   0  0  0  0  0  0  0  0  0  0  0  0
   -0.1300    0.3282    2.9561 C   0  0  0  0  0  0  0  0  0  0  0  0
   -0.9857    1.0061    2.7880 H   0  0  0  0  0  0  0  0  0  0  0  0
    0.2803    0.5957    3.9415 H   0  0  0  0  0  0  0  0  0  0  0  0
   -0.5384   -0.6920    3.0726 H   0  0  0  0  0  0  0  0  0  0  0  0
    2.6235   -0.3055    3.0484 H   0  0  0  0  0  0  0  0  0  0  0  0
    1.7571   -1.5940    2.2287 H   0  0  0  0  0  0  0  0  0  0  0  0
    2.8464   -0.5323    1.3144 H   0  0  0  0  0  0  0  0  0  0  0  0
    1.3610    1.4632    1.8449 H   0  0  0  0  0  0  0  0  0  0  0  0
   -2.5810    2.2029    0.0969 S   0  0  0  0  0  0  0  0  0  0  0  0
   -0.0677    2.6079   -1.0886 C   0  0  2  0  0  0  0  0  0  0  0  0
    0.9933    3.7331   -1.1566 C   0  0  0  0  0  0  0  0  0  0  0  0
    0.2665    4.9898   -0.6334 C   0  0  0  0  0  0  0  0  0  0  0  0
   -1.0780    4.5251   -0.0259 C   0  0  0  0  0  0  0  0  0  0  0  0
   -0.9471    3.0049    0.1258 C   0  0  1  0  0  0  0  0  0  0  0  0
   -0.6857    2.6247   -2.0303 H   0  0  0  0  0  0  0  0  0  0  0  0
    1.8725    3.4936   -0.5348 H   0  0  0  0  0  0  0  0  0  0  0  0
    1.3683    3.8737   -2.1817 H   0  0  0  0  0  0  0  0  0  0  0  0
    0.0946    5.7151   -1.4463 H   0  0  0  0  0  0  0  0  0  0  0  0
    0.8805    5.5097    0.1206 H   0  0  0  0  0  0  0  0  0  0  0  0
   -1.9211    4.7977   -0.6894 H   0  0  0  0  0  0  0  0  0  0  0  0
   -1.2850    5.0145    0.9403 H   0  0  0  0  0  0  0  0  0  0  0  0
   -0.4532    2.7859    1.0993 H   0  0  0  0  0  0  0  0  0  0  0  0
   -2.0058   -2.3546    1.0559 S   0  0  0  0  0  0  0  0  0  0  0  0
    0.4076   -2.6741   -0.3265 C   0  0  2  0  0  0  0  0  0  0  0  0
    1.0177   -3.7022   -1.3035 C   0  0  0  0  0  0  0  0  0  0  0  0
    0.0566   -4.9078   -1.2653 C   0  0  0  0  0  0  0  0  0  0  0  0
   -1.2576   -4.4338   -0.6040 C   0  0  0  0  0  0  0  0  0  0  0  0
   -1.1260   -2.9179   -0.4397 C   0  0  1  0  0  0  0  0  0  0  0  0
    0.7654   -2.8987    0.7163 H   0  0  0  0  0  0  0  0  0  0  0  0
    1.0796   -3.2956   -2.3291 H   0  0  0  0  0  0  0  0  0  0  0  0
    2.0420   -3.9819   -1.0136 H   0  0  0  0  0  0  0  0  0  0  0  0
    0.4965   -5.7441   -0.6959 H   0  0  0  0  0  0  0  0  0  0  0  0
   -0.1291   -5.2901   -2.2830 H   0  0  0  0  0  0  0  0  0  0  0  0
   -1.4058   -4.9418    0.3681 H   0  0  0  0  0  0  0  0  0  0  0  0
   -2.1384   -4.6960   -1.2151 H   0  0  0  0  0  0  0  0  0  0  0  0
   -1.5517   -2.3892   -1.3242 H   0  0  0  0  0  0  0  0  0  0  0  0
  2  3  3  0  0  0  0
  1  2  1  0  0  0  0
  5  4  1  0  0  0  0
  6  5  1  0  0  0  0
  7  6  1  0  0  0  0
  8  6  2  0  0  0  0
  8 10  1  0  0  0  0
  9  8  1  0  0  0  0
 10  4  1  0  0  0  0
  1  4  1  0  0  0  0
 11 12  1  0  0  0  0
 12 13  1  0  0  0  0
 13 14  1  0  0  0  0
 13 15  1  0  0  0  0
 13 16  1  0  0  0  0
 11 17  1  0  0  0  0
 11 18  1  0  0  0  0
 11 19  1  0  0  0  0
 12 20  1  0  0  0  0
  4 12  1  0  0  0  0
  1 21  1  0  0  0  0
 22 23  1  0  0  0  0
 23 24  1  0  0  0  0
 24 25  1  0  0  0  0
 25 26  1  0  0  0  0
 22 26  1  0  0  0  0
 22 27  1  0  0  0  0
 23 28  1  0  0  0  0
 23 29  1  0  0  0  0
 24 30  1  0  0  0  0
 24 31  1  0  0  0  0
 25 32  1  0  0  0  0
 25 33  1  0  0  0  0
 26 34  1  0  0  0  0
 21 26  1  0  0  0  0
  1 35  1  0  0  0  0
 36 37  1  0  0  0  0
 37 38  1  0  0  0  0
 38 39  1  0  0  0  0
 39 40  1  0  0  0  0
 36 40  1  0  0  0  0
 36 41  1  0  0  0  0
 37 42  1  0  0  0  0
 37 43  1  0  0  0  0
 38 44  1  0  0  0  0
 38 45  1  0  0  0  0
 39 46  1  0  0  0  0
 39 47  1  0  0  0  0
 40 48  1  0  0  0  0
 35 40  1  0  0  0  0
  5 22  1  0  0  0  0
 10 36  1  0  0  0  0
M  END
> <PM6_ENERGY>
-183.310

> <UID>
NIXQGUDBEQEPAM-ADMAIEFCNA-L

> <FITNESS>
1.14146

> <GCODE>
201132

> <GraphENC>
201132 11151955_1_0,11151956_1_1,11151957_79_1,11151958_79_1,11151959_26_1,11151960_74_1,11151961_74_1,11151962_70_1,11151963_70_1,11151964_80_1,11151965_80_1, 11151955_2_11151956_1_SINGLE_scaff:0_MBisAminoPhosphine:1,11151956_2_11151957_0_SINGLE_LCycloBisAminoPhospholeSubN:0_ATplus:0,11151956_3_11151958_0_SINGLE_LCycloBisAminoPhospholeSubN:0_ATplus:0,11151956_0_11151959_0_SINGLE_LBisAminoPhosphineSubR:0_SubRM:1,11151955_0_11151960_0_SINGLE_Xlig:0_Xlig:1,11151955_1_11151961_0_SINGLE_Xlig:0_Xlig:1,11151961_1_11151962_1_SINGLE_bridge:1_bridge:0,11151960_1_11151963_1_SINGLE_bridge:1_bridge:0,11151962_0_11151964_0_SINGLE_bridge:0_ATminus:0,11151963_0_11151965_0_SINGLE_bridge:0_ATminus:0, DENOPTIMRing [vertices=[11151957_79_1, 11151956_1_1, 11151955_1_0, 11151960_74_1, 11151963_70_1, 11151965_80_1]] DENOPTIMRing [vertices=[11151958_79_1, 11151956_1_1, 11151955_1_0, 11151961_74_1, 11151962_70_1, 11151964_80_1]] SymmetricSet [symIds=[11151957, 11151958]] SymmetricSet [symIds=[11151960, 11151961]] SymmetricSet [symIds=[11151962, 11151963]] SymmetricSet [symIds=[11151964, 11151965]] 

> <GraphJson>
{
  "graphId": 201132,
  "gVertices": [
    {
      "lstAPs": [
        {
          "id": 18670496,
          "atomPositionNumber": 0,
          "atomPositionNumberInMol": -1,
          "apClass": {
            "rule": "Xlig",
            "subClass": 0,
            "bndTyp": "SINGLE"
          },
          "dirVec": {
            "x": -2.3339,
            "y": -0.0087,
            "z": 0.8172
          }
        },
        {
          "id": 18670497,
          "atomPositionNumber": 0,
          "atomPositionNumberInMol": -1,
          "apClass": {
            "rule": "Xlig",
            "subClass": 0,
            "bndTyp": "SINGLE"
          },
          "dirVec": {
            "x": 2.336,
            "y": -5.0E-4,
            "z": 0.829
          }
        },
        {
          "id": 18670498,
          "atomPositionNumber": 0,
          "atomPositionNumberInMol": -1,
          "apClass": {
            "rule": "scaff",
            "subClass": 0,
            "bndTyp": "SINGLE"
          },
          "dirVec": {
            "x": -0.0095,
            "y": 0.0046,
            "z": -1.7113
          }
        }
      ],
      "lstSymAPs": [
        {
          "symIds": [
            0,
            1
          ]
        }
      ],
      "mol": {
        "atoms": [
          {
            "elSymbol": "Pt",
            "p3d": {
              "x": -0.0098,
              "y": 0.0049,
              "z": 0.6289
            }
          },
          {
            "elSymbol": "C",
            "p3d": {
              "x": -6.0E-4,
              "y": 0.0016,
              "z": 2.5609
            }
          },
          {
            "elSymbol": "O",
            "p3d": {
              "x": 0.0025,
              "y": -0.0041,
              "z": 3.6974
            }
          },
          {
            "elSymbol": "Du",
            "p3d": {
              "x": -0.007,
              "y": 1.0013,
              "z": 0.6372
            }
          },
          {
            "elSymbol": "Du",
            "p3d": {
              "x": -0.0014,
              "y": 0.9902,
              "z": 2.5698
            }
          }
        ],
        "bonds": [
          {
            "atomIds": [
              1,
              2
            ],
            "bo": "TRIPLE"
          },
          {
            "atomIds": [
              0,
              1
            ],
            "bo": "SINGLE"
          },
          {
            "atomIds": [
              3,
              0
            ],
            "bo": "SINGLE"
          },
          {
            "atomIds": [
              4,
              1
            ],
            "bo": "SINGLE"
          }
        ]
      },
      "vertexId": 11151955,
      "buildingBlockId": 0,
      "buildingBlockType": "SCAFFOLD",
      "isRCV": false,
      "properties": {
        "ATTACHMENT_POINTS": "1#Xlig:0:SINGLE:-2.3339%-0.0087%0.8172,Xlig:0:SINGLE:2.3360%-0.0005%0.8290,scaff:0:SINGLE:-0.0095%0.0046%-1.7113 ",
        "OLDVERTEXID": 157
      },
      "uniquefyingPropertyKeys": [],
      "allowedMutationTypes": [
        "DELETE",
        "EXTEND",
        "CHANGEBRANCH",
        "CHANGELINK",
        "ADDLINK",
        "DELETELINK",
        "DELETECHAIN"
      ],
      "vertexType": "MolecularFragment"
    },
    {
      "lstAPs": [
        {
          "id": 18670499,
          "atomPositionNumber": 0,
          "atomPositionNumberInMol": -1,
          "apClass": {
            "rule": "LBisAminoPhosphineSubR",
            "subClass": 0,
            "bndTyp": "SINGLE"
          },
          "dirVec": {
            "x": -1.792186992952222,
            "y": 0.022200467215305136,
            "z": -2.140294607879978
          }
        },
        {
          "id": 18670500,
          "atomPositionNumber": 0,
          "atomPositionNumberInMol": -1,
          "apClass": {
            "rule": "MBisAminoPhosphine",
            "subClass": 1,
            "bndTyp": "SINGLE"
          },
          "dirVec": {
            "x": -0.009790620829534021,
            "y": 0.00489062082953414,
            "z": 0.5557362175858562
          }
        },
        {
          "id": 18670501,
          "atomPositionNumber": 1,
          "atomPositionNumberInMol": -1,
          "apClass": {
            "rule": "LCycloBisAminoPhospholeSubN",
            "subClass": 0,
            "bndTyp": "SINGLE"
          },
          "dirVec": {
            "x": 1.2949089956167246,
            "y": -2.42225253179424,
            "z": -2.300535997647931
          }
        },
        {
          "id": 18670502,
          "atomPositionNumber": 6,
          "atomPositionNumberInMol": -1,
          "apClass": {
            "rule": "LCycloBisAminoPhospholeSubN",
            "subClass": 0,
            "bndTyp": "SINGLE"
          },
          "dirVec": {
            "x": 0.6027963924718436,
            "y": 2.713740576254344,
            "z": -1.9339348129178737
          }
        }
      ],
      "lstSymAPs": [
        {
          "symIds": [
            2,
            3
          ]
        }
      ],
      "mol": {
        "atoms": [
          {
            "elSymbol": "P",
            "p3d": {
              "x": -0.009509379170465976,
              "y": 0.0046093791704658596,
              "z": -1.6381362175858563
            }
          },
          {
            "elSymbol": "N",
            "p3d": {
              "x": 0.8794215696247446,
              "y": -1.0576812892978638,
              "z": -2.591373603528704
            }
          },
          {
            "elSymbol": "C",
            "p3d": {
              "x": 1.4784130515805665,
              "y": -0.3502497342485035,
              "z": -3.6667175296587655
            }
          },
          {
            "elSymbol": "H",
            "p3d": {
              "x": 2.002763870919993,
              "y": -0.8376805256483705,
              "z": -4.485505293278479
            }
          },
          {
            "elSymbol": "C",
            "p3d": {
              "x": 1.3489654149504855,
              "y": 0.9625869625862175,
              "z": -3.5719563729806016
            }
          },
          {
            "elSymbol": "H",
            "p3d": {
              "x": 1.7691178283110074,
              "y": 1.6534842558611083,
              "z": -4.288163158547981
            }
          },
          {
            "elSymbol": "N",
            "p3d": {
              "x": 0.6093348110301025,
              "y": 1.3523318453165212,
              "z": -2.4364231475178193
            }
          }
        ],
        "bonds": [
          {
            "atomIds": [
              1,
              0
            ],
            "bo": "SINGLE"
          },
          {
            "atomIds": [
              2,
              1
            ],
            "bo": "SINGLE"
          },
          {
            "atomIds": [
              3,
              2
            ],
            "bo": "SINGLE"
          },
          {
            "atomIds": [
              4,
              2
            ],
            "bo": "DOUBLE"
          },
          {
            "atomIds": [
              4,
              6
            ],
            "bo": "SINGLE"
          },
          {
            "atomIds": [
              5,
              4
            ],
            "bo": "SINGLE"
          },
          {
            "atomIds": [
              6,
              0
            ],
            "bo": "SINGLE"
          }
        ]
      },
      "vertexId": 11151956,
      "buildingBlockId": 0,
      "buildingBlockType": "FRAGMENT",
      "isRCV": false,
      "properties": {
        "ATTACHMENT_POINTS": "1#LBisAminoPhosphineSubR:0:SINGLE:-1.7922%0.0222%-2.1403,MBisAminoPhosphine:1:SINGLE:-0.0098%0.0049%0.5557 2#LCycloBisAminoPhospholeSubN:0:SINGLE:1.2949%-2.4223%-2.3005 7#LCycloBisAminoPhospholeSubN:0:SINGLE:0.6028%2.7137%-1.9339 ",
        "OLDVERTEXID": 158
      },
      "uniquefyingPropertyKeys": [],
      "allowedMutationTypes": [
        "DELETE",
        "EXTEND",
        "CHANGEBRANCH",
        "CHANGELINK",
        "ADDLINK",
        "DELETELINK",
        "DELETECHAIN"
      ],
      "vertexType": "MolecularFragment"
    },
    {
      "lstAPs": [
        {
          "id": 18670503,
          "atomPositionNumber": 0,
          "atomPositionNumberInMol": -1,
          "apClass": {
            "rule": "ATplus",
            "subClass": 0,
            "bndTyp": "ANY"
          },
          "dirVec": {
            "x": 1.2949089956167246,
            "y": -2.42225253179424,
            "z": -2.300535997647931
          }
        }
      ],
      "lstSymAPs": [],
      "mol": {
        "atoms": [
          {
            "elSymbol": "ATP",
            "p3d": {
              "x": 1.3009002999609833,
              "y": -2.441929569176779,
              "z": -2.2963421364079015
            }
          }
        ],
        "bonds": []
      },
      "vertexId": 11151957,
      "buildingBlockId": 78,
      "buildingBlockType": "FRAGMENT",
      "isRCV": true,
      "properties": {
        "ATTACHMENT_POINTS": "1#ATplus:0:ANY:1.2949%-2.4223%-2.3005 ",
        "OLDVERTEXID": 159
      },
      "uniquefyingPropertyKeys": [],
      "allowedMutationTypes": [
        "DELETE",
        "EXTEND",
        "CHANGEBRANCH",
        "CHANGELINK",
        "ADDLINK",
        "DELETELINK",
        "DELETECHAIN"
      ],
      "vertexType": "MolecularFragment"
    },
    {
      "lstAPs": [
        {
          "id": 18670504,
          "atomPositionNumber": 0,
          "atomPositionNumberInMol": -1,
          "apClass": {
            "rule": "ATplus",
            "subClass": 0,
            "bndTyp": "ANY"
          },
          "dirVec": {
            "x": 0.6027963924718436,
            "y": 2.713740576254344,
            "z": -1.9339348129178737
          }
        }
      ],
      "lstSymAPs": [],
      "mol": {
        "atoms": [
          {
            "elSymbol": "ATP",
            "p3d": {
              "x": 0.6027018116100019,
              "y": 2.7334339026976644,
              "z": -1.9266661164695846
            }
          }
        ],
        "bonds": []
      },
      "vertexId": 11151958,
      "buildingBlockId": 78,
      "buildingBlockType": "FRAGMENT",
      "isRCV": true,
      "properties": {
        "ATTACHMENT_POINTS": "1#ATplus:0:ANY:0.6028%2.7137%-1.9339 ",
        "OLDVERTEXID": 160
      },
      "uniquefyingPropertyKeys": [],
      "allowedMutationTypes": [
        "DELETE",
        "EXTEND",
        "CHANGEBRANCH",
        "CHANGELINK",
        "ADDLINK",
        "DELETELINK",
        "DELETECHAIN"
      ],
      "vertexType": "MolecularFragment"
    },
    {
      "lstAPs": [
        {
          "id": 18670505,
          "atomPositionNumber": 1,
          "atomPositionNumberInMol": -1,
          "apClass": {
            "rule": "SubRM",
            "subClass": 1,
            "bndTyp": "SINGLE"
          },
          "dirVec": {
            "x": 0.2868,
            "y": 0.385,
            "z": -0.643
          }
        }
      ],
      "lstSymAPs": [],
      "mol": {
        "atoms": [
          {
            "elSymbol": "C",
            "p3d": {
              "x": 1.141,
              "y": 1.0262,
              "z": 1.6347
            }
          },
          {
            "elSymbol": "C",
            "p3d": {
              "x": 0.3967,
              "y": -0.0479,
              "z": 0.8227
            }
          },
          {
            "elSymbol": "C",
            "p3d": {
              "x": 1.1459,
              "y": -1.371,
              "z": 0.9201
            }
          },
          {
            "elSymbol": "H",
            "p3d": {
              "x": 2.1461,
              "y": -1.2583,
              "z": 0.4976
            }
          },
          {
            "elSymbol": "H",
            "p3d": {
              "x": 0.6013,
              "y": -2.1408,
              "z": 0.3461
            }
          },
          {
            "elSymbol": "H",
            "p3d": {
              "x": 1.2113,
              "y": -1.6946,
              "z": 1.9559
            }
          },
          {
            "elSymbol": "H",
            "p3d": {
              "x": 2.1541,
              "y": 1.1435,
              "z": 1.2119
            }
          },
          {
            "elSymbol": "H",
            "p3d": {
              "x": 0.6143,
              "y": 1.976,
              "z": 1.5626
            }
          },
          {
            "elSymbol": "H",
            "p3d": {
              "x": 1.2058,
              "y": 0.7088,
              "z": 2.6868
            }
          },
          {
            "elSymbol": "H",
            "p3d": {
              "x": -0.6215,
              "y": -0.1789,
              "z": 1.2377
            }
          }
        ],
        "bonds": [
          {
            "atomIds": [
              0,
              1
            ],
            "bo": "SINGLE"
          },
          {
            "atomIds": [
              1,
              2
            ],
            "bo": "SINGLE"
          },
          {
            "atomIds": [
              2,
              3
            ],
            "bo": "SINGLE"
          },
          {
            "atomIds": [
              2,
              4
            ],
            "bo": "SINGLE"
          },
          {
            "atomIds": [
              2,
              5
            ],
            "bo": "SINGLE"
          },
          {
            "atomIds": [
              0,
              6
            ],
            "bo": "SINGLE"
          },
          {
            "atomIds": [
              0,
              7
            ],
            "bo": "SINGLE"
          },
          {
            "atomIds": [
              0,
              8
            ],
            "bo": "SINGLE"
          },
          {
            "atomIds": [
              1,
              9
            ],
            "bo": "SINGLE"
          }
        ]
      },
      "vertexId": 11151959,
      "buildingBlockId": 25,
      "buildingBlockType": "FRAGMENT",
      "isRCV": false,
      "properties": {
        "ATTACHMENT_POINTS": "2#SubRM:1:SINGLE:0.2868%0.3850%-0.6430 ",
        "OLDVERTEXID": 10284
      },
      "uniquefyingPropertyKeys": [],
      "allowedMutationTypes": [
        "DELETE",
        "EXTEND",
        "CHANGEBRANCH",
        "CHANGELINK",
        "ADDLINK",
        "DELETELINK",
        "DELETECHAIN"
      ],
      "vertexType": "MolecularFragment"
    },
    {
      "lstAPs": [
        {
          "id": 18670506,
          "atomPositionNumber": 0,
          "atomPositionNumberInMol": -1,
          "apClass": {
            "rule": "Xlig",
            "subClass": 1,
            "bndTyp": "SINGLE"
          },
          "dirVec": {
            "x": -0.102,
            "y": 0.0185,
            "z": -1.0265
          }
        },
        {
          "id": 18670507,
          "atomPositionNumber": 0,
          "atomPositionNumberInMol": -1,
          "apClass": {
            "rule": "bridge",
            "subClass": 1,
            "bndTyp": "SINGLE"
          },
          "dirVec": {
            "x": -0.626,
            "y": 2.4866,
            "z": 0.7805
          }
        }
      ],
      "lstSymAPs": [],
      "mol": {
        "atoms": [
          {
            "elSymbol": "S",
            "p3d": {
              "x": -0.3267,
              "y": 2.3403,
              "z": -1.0022
            }
          }
        ],
        "bonds": []
      },
      "vertexId": 11151960,
      "buildingBlockId": 73,
      "buildingBlockType": "FRAGMENT",
      "isRCV": false,
      "properties": {
        "ATTACHMENT_POINTS": "1#Xlig:1:SINGLE:-0.1020%0.0185%-1.0265,bridge:1:SINGLE:-0.6260%2.4866%0.7805 ",
        "OLDVERTEXID": 10275
      },
      "uniquefyingPropertyKeys": [],
      "allowedMutationTypes": [
        "DELETE",
        "EXTEND",
        "CHANGEBRANCH",
        "CHANGELINK",
        "ADDLINK",
        "DELETELINK",
        "DELETECHAIN"
      ],
      "vertexType": "MolecularFragment"
    },
    {
      "lstAPs": [
        {
          "id": 18670508,
          "atomPositionNumber": 0,
          "atomPositionNumberInMol": -1,
          "apClass": {
            "rule": "Xlig",
            "subClass": 1,
            "bndTyp": "SINGLE"
          },
          "dirVec": {
            "x": -0.102,
            "y": 0.0185,
            "z": -1.0265
          }
        },
        {
          "id": 18670509,
          "atomPositionNumber": 0,
          "atomPositionNumberInMol": -1,
          "apClass": {
            "rule": "bridge",
            "subClass": 1,
            "bndTyp": "SINGLE"
          },
          "dirVec": {
            "x": -0.626,
            "y": 2.4866,
            "z": 0.7805
          }
        }
      ],
      "lstSymAPs": [],
      "mol": {
        "atoms": [
          {
            "elSymbol": "S",
            "p3d": {
              "x": -0.3267,
              "y": 2.3403,
              "z": -1.0022
            }
          }
        ],
        "bonds": []
      },
      "vertexId": 11151961,
      "buildingBlockId": 73,
      "buildingBlockType": "FRAGMENT",
      "isRCV": false,
      "properties": {
        "ATTACHMENT_POINTS": "1#Xlig:1:SINGLE:-0.1020%0.0185%-1.0265,bridge:1:SINGLE:-0.6260%2.4866%0.7805 ",
        "OLDVERTEXID": 10397
      },
      "uniquefyingPropertyKeys": [],
      "allowedMutationTypes": [
        "DELETE",
        "EXTEND",
        "CHANGEBRANCH",
        "CHANGELINK",
        "ADDLINK",
        "DELETELINK",
        "DELETECHAIN"
      ],
      "vertexType": "MolecularFragment"
    },
    {
      "lstAPs": [
        {
          "id": 18670510,
          "atomPositionNumber": 0,
          "atomPositionNumberInMol": -1,
          "apClass": {
            "rule": "bridge",
            "subClass": 0,
            "bndTyp": "SINGLE"
          },
          "dirVec": {
            "x": 2.2309,
            "y": 1.5817,
            "z": 0.6565999999999999
          }
        },
        {
          "id": 18670511,
          "atomPositionNumber": 4,
          "atomPositionNumberInMol": -1,
          "apClass": {
            "rule": "bridge",
            "subClass": 0,
            "bndTyp": "SINGLE"
          },
          "dirVec": {
            "x": 1.1795,
            "y": -0.8206,
            "z": 2.1815
          }
        }
      ],
      "lstSymAPs": [
        {
          "symIds": [
            0,
            1
          ]
        }
      ],
      "mol": {
        "atoms": [
          {
            "elSymbol": "C",
            "p3d": {
              "x": 1.4767,
              "y": 0.4111,
              "z": -0.0358
            }
          },
          {
            "elSymbol": "C",
            "p3d": {
              "x": 0.6064,
              "y": 0.7242,
              "z": -1.2721
            }
          },
          {
            "elSymbol": "C",
            "p3d": {
              "x": -0.3951,
              "y": -0.4594,
              "z": -1.3469
            }
          },
          {
            "elSymbol": "C",
            "p3d": {
              "x": -0.3076,
              "y": -1.2087,
              "z": 0.0097
            }
          },
          {
            "elSymbol": "C",
            "p3d": {
              "x": 0.4613,
              "y": -0.2385,
              "z": 0.9321
            }
          },
          {
            "elSymbol": "H",
            "p3d": {
              "x": 2.2245,
              "y": -0.3328,
              "z": -0.3416
            }
          },
          {
            "elSymbol": "H",
            "p3d": {
              "x": 0.0672,
              "y": 1.6663,
              "z": -1.1316
            }
          },
          {
            "elSymbol": "H",
            "p3d": {
              "x": 1.2126,
              "y": 0.798,
              "z": -2.1799
            }
          },
          {
            "elSymbol": "H",
            "p3d": {
              "x": -0.1332,
              "y": -1.1322,
              "z": -2.1707
            }
          },
          {
            "elSymbol": "H",
            "p3d": {
              "x": -1.4103,
              "y": -0.0853,
              "z": -1.5178
            }
          },
          {
            "elSymbol": "H",
            "p3d": {
              "x": 0.248,
              "y": -2.143,
              "z": -0.114
            }
          },
          {
            "elSymbol": "H",
            "p3d": {
              "x": -1.2998,
              "y": -1.4376,
              "z": 0.4073
            }
          },
          {
            "elSymbol": "H",
            "p3d": {
              "x": -0.2539,
              "y": 0.5182,
              "z": 1.28
            }
          }
        ],
        "bonds": [
          {
            "atomIds": [
              0,
              1
            ],
            "bo": "SINGLE"
          },
          {
            "atomIds": [
              1,
              2
            ],
            "bo": "SINGLE"
          },
          {
            "atomIds": [
              2,
              3
            ],
            "bo": "SINGLE"
          },
          {
            "atomIds": [
              3,
              4
            ],
            "bo": "SINGLE"
          },
          {
            "atomIds": [
              0,
              4
            ],
            "bo": "SINGLE"
          },
          {
            "atomIds": [
              0,
              5
            ],
            "bo": "SINGLE"
          },
          {
            "atomIds": [
              1,
              6
            ],
            "bo": "SINGLE"
          },
          {
            "atomIds": [
              1,
              7
            ],
            "bo": "SINGLE"
          },
          {
            "atomIds": [
              2,
              8
            ],
            "bo": "SINGLE"
          },
          {
            "atomIds": [
              2,
              9
            ],
            "bo": "SINGLE"
          },
          {
            "atomIds": [
              3,
              10
            ],
            "bo": "SINGLE"
          },
          {
            "atomIds": [
              3,
              11
            ],
            "bo": "SINGLE"
          },
          {
            "atomIds": [
              4,
              12
            ],
            "bo": "SINGLE"
          }
        ]
      },
      "vertexId": 11151962,
      "buildingBlockId": 69,
      "buildingBlockType": "FRAGMENT",
      "isRCV": false,
      "properties": {
        "ATTACHMENT_POINTS": "1#bridge:0:SINGLE:2.2309%1.5817%0.6566 5#bridge:0:SINGLE:1.1795%-0.8206%2.1815 ",
        "OLDVERTEXID": 214119
      },
      "uniquefyingPropertyKeys": [],
      "allowedMutationTypes": [
        "DELETE",
        "EXTEND",
        "CHANGEBRANCH",
        "CHANGELINK",
        "ADDLINK",
        "DELETELINK",
        "DELETECHAIN"
      ],
      "vertexType": "MolecularFragment"
    },
    {
      "lstAPs": [
        {
          "id": 18670512,
          "atomPositionNumber": 0,
          "atomPositionNumberInMol": -1,
          "apClass": {
            "rule": "bridge",
            "subClass": 0,
            "bndTyp": "SINGLE"
          },
          "dirVec": {
            "x": 2.2309,
            "y": 1.5817,
            "z": 0.6565999999999999
          }
        },
        {
          "id": 18670513,
          "atomPositionNumber": 4,
          "atomPositionNumberInMol": -1,
          "apClass": {
            "rule": "bridge",
            "subClass": 0,
            "bndTyp": "SINGLE"
          },
          "dirVec": {
            "x": 1.1795,
            "y": -0.8206,
            "z": 2.1815
          }
        }
      ],
      "lstSymAPs": [
        {
          "symIds": [
            0,
            1
          ]
        }
      ],
      "mol": {
        "atoms": [
          {
            "elSymbol": "C",
            "p3d": {
              "x": 1.4767,
              "y": 0.4111,
              "z": -0.0358
            }
          },
          {
            "elSymbol": "C",
            "p3d": {
              "x": 0.6064,
              "y": 0.7242,
              "z": -1.2721
            }
          },
          {
            "elSymbol": "C",
            "p3d": {
              "x": -0.3951,
              "y": -0.4594,
              "z": -1.3469
            }
          },
          {
            "elSymbol": "C",
            "p3d": {
              "x": -0.3076,
              "y": -1.2087,
              "z": 0.0097
            }
          },
          {
            "elSymbol": "C",
            "p3d": {
              "x": 0.4613,
              "y": -0.2385,
              "z": 0.9321
            }
          },
          {
            "elSymbol": "H",
            "p3d": {
              "x": 2.2245,
              "y": -0.3328,
              "z": -0.3416
            }
          },
          {
            "elSymbol": "H",
            "p3d": {
              "x": 0.0672,
              "y": 1.6663,
              "z": -1.1316
            }
          },
          {
            "elSymbol": "H",
            "p3d": {
              "x": 1.2126,
              "y": 0.798,
              "z": -2.1799
            }
          },
          {
            "elSymbol": "H",
            "p3d": {
              "x": -0.1332,
              "y": -1.1322,
              "z": -2.1707
            }
          },
          {
            "elSymbol": "H",
            "p3d": {
              "x": -1.4103,
              "y": -0.0853,
              "z": -1.5178
            }
          },
          {
            "elSymbol": "H",
            "p3d": {
              "x": 0.248,
              "y": -2.143,
              "z": -0.114
            }
          },
          {
            "elSymbol": "H",
            "p3d": {
              "x": -1.2998,
              "y": -1.4376,
              "z": 0.4073
            }
          },
          {
            "elSymbol": "H",
            "p3d": {
              "x": -0.2539,
              "y": 0.5182,
              "z": 1.28
            }
          }
        ],
        "bonds": [
          {
            "atomIds": [
              0,
              1
            ],
            "bo": "SINGLE"
          },
          {
            "atomIds": [
              1,
              2
            ],
            "bo": "SINGLE"
          },
          {
            "atomIds": [
              2,
              3
            ],
            "bo": "SINGLE"
          },
          {
            "atomIds": [
              3,
              4
            ],
            "bo": "SINGLE"
          },
          {
            "atomIds": [
              0,
              4
            ],
            "bo": "SINGLE"
          },
          {
            "atomIds": [
              0,
              5
            ],
            "bo": "SINGLE"
          },
          {
            "atomIds": [
              1,
              6
            ],
            "bo": "SINGLE"
          },
          {
            "atomIds": [
              1,
              7
            ],
            "bo": "SINGLE"
          },
          {
            "atomIds": [
              2,
              8
            ],
            "bo": "SINGLE"
          },
          {
            "atomIds": [
              2,
              9
            ],
            "bo": "SINGLE"
          },
          {
            "atomIds": [
              3,
              10
            ],
            "bo": "SINGLE"
          },
          {
            "atomIds": [
              3,
              11
            ],
            "bo": "SINGLE"
          },
          {
            "atomIds": [
              4,
              12
            ],
            "bo": "SINGLE"
          }
        ]
      },
      "vertexId": 11151963,
      "buildingBlockId": 69,
      "buildingBlockType": "FRAGMENT",
      "isRCV": false,
      "properties": {
        "ATTACHMENT_POINTS": "1#bridge:0:SINGLE:2.2309%1.5817%0.6566 5#bridge:0:SINGLE:1.1795%-0.8206%2.1815 ",
        "OLDVERTEXID": 213919
      },
      "uniquefyingPropertyKeys": [],
      "allowedMutationTypes": [
        "DELETE",
        "EXTEND",
        "CHANGEBRANCH",
        "CHANGELINK",
        "ADDLINK",
        "DELETELINK",
        "DELETECHAIN"
      ],
      "vertexType": "MolecularFragment"
    },
    {
      "lstAPs": [
        {
          "id": 18670514,
          "atomPositionNumber": 0,
          "atomPositionNumberInMol": -1,
          "apClass": {
            "rule": "ATminus",
            "subClass": 0,
            "bndTyp": "ANY"
          },
          "dirVec": {
            "x": 0.0109,
            "y": -0.0071,
            "z": 0.0026
          }
        }
      ],
      "lstSymAPs": [],
      "mol": {
        "atoms": [
          {
            "elSymbol": "ATM",
            "p3d": {
              "x": -0.0096,
              "y": 0.0045,
              "z": -0.0011
            }
          }
        ],
        "bonds": []
      },
      "vertexId": 11151964,
      "buildingBlockId": 79,
      "buildingBlockType": "FRAGMENT",
      "isRCV": true,
      "properties": {
        "ATTACHMENT_POINTS": "1#ATminus:0:ANY:0.0109%-0.0071%0.0026 ",
        "OLDVERTEXID": 11151706
      },
      "uniquefyingPropertyKeys": [],
      "allowedMutationTypes": [
        "DELETE",
        "EXTEND",
        "CHANGEBRANCH",
        "CHANGELINK",
        "ADDLINK",
        "DELETELINK",
        "DELETECHAIN"
      ],
      "vertexType": "MolecularFragment"
    },
    {
      "lstAPs": [
        {
          "id": 18670515,
          "atomPositionNumber": 0,
          "atomPositionNumberInMol": -1,
          "apClass": {
            "rule": "ATminus",
            "subClass": 0,
            "bndTyp": "ANY"
          },
          "dirVec": {
            "x": 0.0109,
            "y": -0.0071,
            "z": 0.0026
          }
        }
      ],
      "lstSymAPs": [],
      "mol": {
        "atoms": [
          {
            "elSymbol": "ATM",
            "p3d": {
              "x": -0.0096,
              "y": 0.0045,
              "z": -0.0011
            }
          }
        ],
        "bonds": []
      },
      "vertexId": 11151965,
      "buildingBlockId": 79,
      "buildingBlockType": "FRAGMENT",
      "isRCV": true,
      "properties": {
        "ATTACHMENT_POINTS": "1#ATminus:0:ANY:0.0109%-0.0071%0.0026 ",
        "OLDVERTEXID": 11151822
      },
      "uniquefyingPropertyKeys": [],
      "allowedMutationTypes": [
        "DELETE",
        "EXTEND",
        "CHANGEBRANCH",
        "CHANGELINK",
        "ADDLINK",
        "DELETELINK",
        "DELETECHAIN"
      ],
      "vertexType": "MolecularFragment"
    }
  ],
  "gEdges": [
    {
      "srcAPID": 18670498,
      "trgAPID": 18670500,
      "bondType": "SINGLE"
    },
    {
      "srcAPID": 18670501,
      "trgAPID": 18670503,
      "bondType": "SINGLE"
    },
    {
      "srcAPID": 18670502,
      "trgAPID": 18670504,
      "bondType": "SINGLE"
    },
    {
      "srcAPID": 18670499,
      "trgAPID": 18670505,
      "bondType": "SINGLE"
    },
    {
      "srcAPID": 18670496,
      "trgAPID": 18670506,
      "bondType": "SINGLE"
    },
    {
      "srcAPID": 18670497,
      "trgAPID": 18670508,
      "bondType": "SINGLE"
    },
    {
      "srcAPID": 18670509,
      "trgAPID": 18670511,
      "bondType": "SINGLE"
    },
    {
      "srcAPID": 18670507,
      "trgAPID": 18670513,
      "bondType": "SINGLE"
    },
    {
      "srcAPID": 18670510,
      "trgAPID": 18670514,
      "bondType": "SINGLE"
    },
    {
      "srcAPID": 18670512,
      "trgAPID": 18670515,
      "bondType": "SINGLE"
    }
  ],
  "gRings": [
    {
      "vertices": [
        11151957,
        11151956,
        11151955,
        11151960,
        11151963,
        11151965
      ],
      "bndTyp": "SINGLE"
    },
    {
      "vertices": [
        11151958,
        11151956,
        11151955,
        11151961,
        11151962,
        11151964
      ],
      "bndTyp": "SINGLE"
    }
  ],
  "symVertices": [
    {
      "symIds": [
        11151957,
        11151958
      ]
    },
    {
      "symIds": [
        11151960,
        11151961
      ]
    },
    {
      "symIds": [
        11151962,
        11151963
      ]
    },
    {
      "symIds": [
        11151964,
        11151965
      ]
    }
  ]
}

> <SMILES>
[Pt]12(C#O)[P]3(N(C([H])=C(N3C4(C(C(C(C4([H])S1)([H])[H])([H])[H])([H])[H])[H])[H])C5(C(C(C(C5([H])S2)([H])[H])([H])[H])([H])[H])[H])C(C([H])([H])[H])(C([H])([H])[H])[H]

$$$$
