M30087939
  CDK     05082206453D

 52 54  0  0  0  0  0  0  0  0999 V2000
   -0.0046   -0.0044    0.8059 Pt  0  0  0  0  0  0  0  0  0  0  0  0
   -0.0139   -0.0146    2.7170 C   0  0  0  0  0  0  0  0  0  0  0  0
   -0.0195   -0.0205    3.8634 O   0  0  0  0  0  0  0  0  0  0  0  0
    0.0056    0.0067   -1.2112 C   0  0  1  0  0  0  0  0  0  0  0  0
   -1.0990   -0.0254   -2.0387 N   0  0  0  0  0  0  0  0  0  0  0  0
   -0.6774   -0.0033   -3.3814 C   0  0  0  0  0  0  0  0  0  0  0  0
    0.7121    0.0413   -3.3736 C   0  0  0  0  0  0  0  0  0  0  0  0
    1.1191    0.0481   -2.0264 N   0  0  0  0  0  0  0  0  0  0  0  0
    1.3999    0.0676   -4.2001 H   0  0  0  0  0  0  0  0  0  0  0  0
   -1.3563   -0.0202   -4.2154 H   0  0  0  0  0  0  0  0  0  0  0  0
   -2.4815   -0.0739   -1.5503 C   0  0  0  0  0  0  0  0  0  0  0  0
   -2.8991    0.9444   -1.4477 H   0  0  0  0  0  0  0  0  0  0  0  0
   -2.5055   -0.5580   -0.5353 H   0  0  0  0  0  0  0  0  0  0  0  0
   -3.1259   -0.6688   -2.2168 H   0  0  0  0  0  0  0  0  0  0  0  0
    2.4963    0.0911   -1.5224 C   0  0  0  0  0  0  0  0  0  0  0  0
    2.9132   -0.9283   -1.4277 H   0  0  0  0  0  0  0  0  0  0  0  0
    2.5089    0.5627   -0.5012 H   0  0  0  0  0  0  0  0  0  0  0  0
    3.1476    0.6942   -2.1745 H   0  0  0  0  0  0  0  0  0  0  0  0
    0.3228   -2.0559    0.7997 O   0  0  0  0  0  0  0  0  0  0  0  0
   -1.8671   -2.1951    0.5493 O   0  0  0  0  0  0  0  0  0  0  0  0
   -0.7897   -2.7823    0.6727 C   0  0  0  0  0  0  0  0  0  0  0  0
   -3.0571   -4.6743    0.5634 C   0  0  0  0  0  0  0  0  0  0  0  0
   -1.6500   -5.1524    0.6439 C   0  0  0  0  0  0  0  0  0  0  0  0
   -1.3803   -6.5336    0.6711 C   0  0  0  0  0  0  0  0  0  0  0  0
   -0.0702   -7.0005    0.7533 C   0  0  0  0  0  0  0  0  0  0  0  0
    1.0013   -6.0992    0.8103 C   0  0  0  0  0  0  0  0  0  0  0  0
    0.7501   -4.7302    0.7841 C   0  0  0  0  0  0  0  0  0  0  0  0
   -0.5691   -4.2461    0.6980 C   0  0  0  0  0  0  0  0  0  0  0  0
   -3.2086   -4.0266   -0.3176 H   0  0  0  0  0  0  0  0  0  0  0  0
   -3.3072   -4.0298    1.4252 H   0  0  0  0  0  0  0  0  0  0  0  0
   -2.2057   -7.2420    0.6302 H   0  0  0  0  0  0  0  0  0  0  0  0
    0.1236   -8.0734    0.7749 H   0  0  0  0  0  0  0  0  0  0  0  0
    2.0223   -6.4678    0.8780 H   0  0  0  0  0  0  0  0  0  0  0  0
    1.5742   -4.0105    0.8326 H   0  0  0  0  0  0  0  0  0  0  0  0
   -3.7945   -5.4824    0.5223 H   0  0  0  0  0  0  0  0  0  0  0  0
   -0.3319    2.0471    0.8177 O   0  0  0  0  0  0  0  0  0  0  0  0
    1.8611    2.1881    0.5962 O   0  0  0  0  0  0  0  0  0  0  0  0
    0.7823    2.7745    0.7120 C   0  0  0  0  0  0  0  0  0  0  0  0
    3.0511    4.6667    0.6452 C   0  0  0  0  0  0  0  0  0  0  0  0
    1.6434    5.1444    0.7154 C   0  0  0  0  0  0  0  0  0  0  0  0
    1.3737    6.5254    0.7525 C   0  0  0  0  0  0  0  0  0  0  0  0
    0.0629    6.9919    0.8247 C   0  0  0  0  0  0  0  0  0  0  0  0
   -1.0094    6.0904    0.8619 C   0  0  0  0  0  0  0  0  0  0  0  0
   -0.7581    4.7216    0.8258 C   0  0  0  0  0  0  0  0  0  0  0  0
    0.5618    4.2380    0.7493 C   0  0  0  0  0  0  0  0  0  0  0  0
    3.2127    4.0307   -0.2424 H   0  0  0  0  0  0  0  0  0  0  0  0
    3.2908    4.0106    1.5013 H   0  0  0  0  0  0  0  0  0  0  0  0
    2.1996    7.2338    0.7271 H   0  0  0  0  0  0  0  0  0  0  0  0
   -0.1309    8.0646    0.8540 H   0  0  0  0  0  0  0  0  0  0  0  0
   -2.0309    6.4587    0.9219 H   0  0  0  0  0  0  0  0  0  0  0  0
   -1.5829    4.0017    0.8590 H   0  0  0  0  0  0  0  0  0  0  0  0
    3.7893    5.4749    0.6236 H   0  0  0  0  0  0  0  0  0  0  0  0
  2  3  3  0  0  0  0
  1  2  1  0  0  0  0
  5  4  1  0  0  0  0
  6  5  1  0  0  0  0
  7  6  2  0  0  0  0
  7  8  1  0  0  0  0
  8  4  1  0  0  0  0
  1  4  1  0  0  0  0
  7  9  1  0  0  0  0
  6 10  1  0  0  0  0
 12 11  1  0  0  0  0
 13 11  1  0  0  0  0
 14 11  1  0  0  0  0
  5 11  1  0  0  0  0
 16 15  1  0  0  0  0
 17 15  1  0  0  0  0
 18 15  1  0  0  0  0
  8 15  1  0  0  0  0
 20 21  2  0  0  0  0
 21 19  1  0  0  0  0
  1 19  1  0  0  0  0
 22 23  1  0  0  0  0
 23 24  1  0  0  0  0
 24 25  2  0  0  0  0
 25 26  1  0  0  0  0
 26 27  2  0  0  0  0
 27 28  1  0  0  0  0
 23 28  2  0  0  0  0
 22 29  1  0  0  0  0
 22 30  1  0  0  0  0
 24 31  1  0  0  0  0
 25 32  1  0  0  0  0
 26 33  1  0  0  0  0
 27 34  1  0  0  0  0
 21 28  1  0  0  0  0
 22 35  1  0  0  0  0
 37 38  2  0  0  0  0
 38 36  1  0  0  0  0
  1 36  1  0  0  0  0
 39 40  1  0  0  0  0
 40 41  1  0  0  0  0
 41 42  2  0  0  0  0
 42 43  1  0  0  0  0
 43 44  2  0  0  0  0
 44 45  1  0  0  0  0
 40 45  2  0  0  0  0
 39 46  1  0  0  0  0
 39 47  1  0  0  0  0
 41 48  1  0  0  0  0
 42 49  1  0  0  0  0
 43 50  1  0  0  0  0
 44 51  1  0  0  0  0
 38 45  1  0  0  0  0
 39 52  1  0  0  0  0
M  END
> <PM6_ENERGY>
-495.790

> <UID>
AXLPGUYXGRCGCI-UUUYPJJBNA-L

> <FITNESS>
1.14643

> <GCODE>
194634

> <GraphENC>
194634 153_1_0,154_63_1,155_79_1,156_79_1,9739_76_1,9982_1_2,9747_1_2,9980_76_1,204129_68_1,203990_68_1,10779122_80_1,10779112_80_1, 153_2_154_0_SINGLE_scaff:0_MImidazolylidene:1,154_1_155_0_SINGLE_LImidazolylideneSubNL:0_ATplus:0,154_4_156_0_SINGLE_LImidazolylideneSubNL:0_ATplus:0,153_0_9739_0_SINGLE_Xlig:0_Xlig:1,154_3_9982_0_SINGLE_LImidazolylideneSubCS:0_hyd:1,154_2_9747_0_SINGLE_LImidazolylideneSubCS:0_hyd:1,153_1_9980_0_SINGLE_Xlig:0_Xlig:1,9980_1_204129_1_SINGLE_bridge:1_bridge:0,9739_1_203990_1_SINGLE_bridge:1_bridge:0,203990_0_10779122_0_SINGLE_bridge:0_ATminus:0,204129_0_10779112_0_SINGLE_bridge:0_ATminus:0, SymmetricSet [symIds=[155, 156]] SymmetricSet [symIds=[9739, 9980]] SymmetricSet [symIds=[9982, 9747]] SymmetricSet [symIds=[204129, 203990]] SymmetricSet [symIds=[10779122, 10779112]] 

> <GraphJson>
{
  "graphId": 194634,
  "gVertices": [
    {
      "lstAPs": [
        {
          "id": 18046988,
          "atomPositionNumber": 0,
          "atomPositionNumberInMol": 0,
          "apClass": {
            "rule": "Xlig",
            "subClass": 0,
            "bndTyp": "SINGLE"
          },
          "dirVec": {
            "x": -2.3339,
            "y": -0.0087,
            "z": 0.8172
          }
        },
        {
          "id": 18046989,
          "atomPositionNumber": 0,
          "atomPositionNumberInMol": 0,
          "apClass": {
            "rule": "Xlig",
            "subClass": 0,
            "bndTyp": "SINGLE"
          },
          "dirVec": {
            "x": 2.336,
            "y": -5.0E-4,
            "z": 0.829
          }
        },
        {
          "id": 18046990,
          "atomPositionNumber": 0,
          "atomPositionNumberInMol": 0,
          "apClass": {
            "rule": "scaff",
            "subClass": 0,
            "bndTyp": "SINGLE"
          },
          "dirVec": {
            "x": -0.0095,
            "y": 0.0046,
            "z": -1.7113
          }
        }
      ],
      "lstSymAPs": [
        {
          "symIds": [
            0,
            1
          ]
        }
      ],
      "mol": {
        "atoms": [
          {
            "elSymbol": "Pt",
            "p3d": {
              "x": -0.0098,
              "y": 0.0049,
              "z": 0.6289
            }
          },
          {
            "elSymbol": "C",
            "p3d": {
              "x": -6.0E-4,
              "y": 0.0016,
              "z": 2.5609
            }
          },
          {
            "elSymbol": "O",
            "p3d": {
              "x": 0.0025,
              "y": -0.0041,
              "z": 3.6974
            }
          },
          {
            "elSymbol": "Du",
            "p3d": {
              "x": -0.007,
              "y": 1.0013,
              "z": 0.6372
            }
          },
          {
            "elSymbol": "Du",
            "p3d": {
              "x": -0.0014,
              "y": 0.9902,
              "z": 2.5698
            }
          }
        ],
        "bonds": [
          {
            "atomIds": [
              1,
              2
            ],
            "bo": "TRIPLE"
          },
          {
            "atomIds": [
              0,
              1
            ],
            "bo": "SINGLE"
          },
          {
            "atomIds": [
              3,
              0
            ],
            "bo": "SINGLE"
          },
          {
            "atomIds": [
              4,
              1
            ],
            "bo": "SINGLE"
          }
        ]
      },
      "vertexId": 153,
      "buildingBlockId": 0,
      "buildingBlockType": "SCAFFOLD",
      "isRCV": false,
      "properties": {
        "ATTACHMENT_POINTS": "1#Xlig:0:SINGLE:-2.3339%-0.0087%0.8172,Xlig:0:SINGLE:2.3360%-0.0005%0.8290,scaff:0:SINGLE:-0.0095%0.0046%-1.7113 "
      },
      "uniquefyingPropertyKeys": [],
      "allowedMutationTypes": [
        "DELETE",
        "EXTEND",
        "CHANGEBRANCH",
        "CHANGELINK",
        "ADDLINK",
        "DELETELINK",
        "DELETECHAIN"
      ],
      "vertexType": "MolecularFragment"
    },
    {
      "lstAPs": [
        {
          "id": 18046991,
          "atomPositionNumber": 0,
          "atomPositionNumberInMol": 5,
          "apClass": {
            "rule": "MImidazolylidene",
            "subClass": 1,
            "bndTyp": "SINGLE"
          },
          "dirVec": {
            "x": -0.009793238118654938,
            "y": 0.004893238118654934,
            "z": 0.5761528175852433
          }
        },
        {
          "id": 18046992,
          "atomPositionNumber": 1,
          "atomPositionNumberInMol": 6,
          "apClass": {
            "rule": "LImidazolylideneSubNL",
            "subClass": 0,
            "bndTyp": "SINGLE"
          },
          "dirVec": {
            "x": 2.1385376400018083,
            "y": -1.2920820938118114,
            "z": -2.0126980407065247
          }
        },
        {
          "id": 18046993,
          "atomPositionNumber": 2,
          "atomPositionNumberInMol": 7,
          "apClass": {
            "rule": "LImidazolylideneSubCS",
            "subClass": 0,
            "bndTyp": "SINGLE"
          },
          "dirVec": {
            "x": 1.3448401215438701,
            "y": -0.9033181604791201,
            "z": -5.017679279139372
          }
        },
        {
          "id": 18046994,
          "atomPositionNumber": 3,
          "atomPositionNumberInMol": 8,
          "apClass": {
            "rule": "LImidazolylideneSubCS",
            "subClass": 0,
            "bndTyp": "SINGLE"
          },
          "dirVec": {
            "x": -1.3477185878361413,
            "y": 0.8507747291978388,
            "z": -5.018441464543981
          }
        },
        {
          "id": 18046995,
          "atomPositionNumber": 4,
          "atomPositionNumberInMol": 9,
          "apClass": {
            "rule": "LImidazolylideneSubNL",
            "subClass": 0,
            "bndTyp": "SINGLE"
          },
          "dirVec": {
            "x": -2.1480918912368194,
            "y": 1.2671530428764126,
            "z": -2.019672067757746
          }
        }
      ],
      "lstSymAPs": [
        {
          "symIds": [
            1,
            4
          ]
        },
        {
          "symIds": [
            2,
            3
          ]
        }
      ],
      "mol": {
        "atoms": [
          {
            "elSymbol": "C",
            "p3d": {
              "x": -0.009506761881345062,
              "y": 0.0046067618813450655,
              "z": -1.6585528175852433
            }
          },
          {
            "elSymbol": "N",
            "p3d": {
              "x": 0.9210219066924671,
              "y": -0.5768763137558393,
              "z": -2.4913283273775098
            }
          },
          {
            "elSymbol": "C",
            "p3d": {
              "x": 0.5808767650721197,
              "y": -0.37444584415157073,
              "z": -3.8247559735615355
            }
          },
          {
            "elSymbol": "C",
            "p3d": {
              "x": -0.5846862974820531,
              "y": 0.3294560187596806,
              "z": -3.824482844647925
            }
          },
          {
            "elSymbol": "N",
            "p3d": {
              "x": -0.9434229167071055,
              "y": 0.5572297196054272,
              "z": -2.48469390260145
            }
          }
        ],
        "bonds": [
          {
            "atomIds": [
              1,
              0
            ],
            "bo": "SINGLE"
          },
          {
            "atomIds": [
              2,
              1
            ],
            "bo": "SINGLE"
          },
          {
            "atomIds": [
              3,
              2
            ],
            "bo": "DOUBLE"
          },
          {
            "atomIds": [
              3,
              4
            ],
            "bo": "SINGLE"
          },
          {
            "atomIds": [
              4,
              0
            ],
            "bo": "SINGLE"
          }
        ]
      },
      "vertexId": 154,
      "buildingBlockId": 62,
      "buildingBlockType": "FRAGMENT",
      "isRCV": false,
      "properties": {
        "ATTACHMENT_POINTS": "1#MImidazolylidene:1:SINGLE:-0.0098%0.0049%0.5762 2#LImidazolylideneSubNL:0:SINGLE:2.1385%-1.2921%-2.0127 3#LImidazolylideneSubCS:0:SINGLE:1.3448%-0.9033%-5.0177 4#LImidazolylideneSubCS:0:SINGLE:-1.3477%0.8508%-5.0184 5#LImidazolylideneSubNL:0:SINGLE:-2.1481%1.2672%-2.0197 "
      },
      "uniquefyingPropertyKeys": [],
      "allowedMutationTypes": [
        "DELETE",
        "EXTEND",
        "CHANGEBRANCH",
        "CHANGELINK",
        "ADDLINK",
        "DELETELINK",
        "DELETECHAIN"
      ],
      "vertexType": "MolecularFragment"
    },
    {
      "lstAPs": [
        {
          "id": 18046996,
          "atomPositionNumber": 0,
          "atomPositionNumberInMol": 10,
          "apClass": {
            "rule": "ATplus",
            "subClass": 0,
            "bndTyp": "ANY"
          },
          "dirVec": {
            "x": 2.1385376400018083,
            "y": -1.2920820938118114,
            "z": -2.0126980407065247
          }
        }
      ],
      "lstSymAPs": [],
      "mol": {
        "atoms": [
          {
            "elSymbol": "ATP",
            "p3d": {
              "x": 2.155679833678634,
              "y": -1.3021519398639685,
              "z": -2.0059590944660464
            }
          }
        ],
        "bonds": []
      },
      "vertexId": 155,
      "buildingBlockId": 78,
      "buildingBlockType": "FRAGMENT",
      "isRCV": true,
      "properties": {
        "ATTACHMENT_POINTS": "1#ATplus:0:ANY:2.1385%-1.2921%-2.0127 "
      },
      "uniquefyingPropertyKeys": [],
      "allowedMutationTypes": [
        "DELETE",
        "EXTEND",
        "CHANGEBRANCH",
        "CHANGELINK",
        "ADDLINK",
        "DELETELINK",
        "DELETECHAIN"
      ],
      "vertexType": "MolecularFragment"
    },
    {
      "lstAPs": [
        {
          "id": 18046997,
          "atomPositionNumber": 0,
          "atomPositionNumberInMol": 11,
          "apClass": {
            "rule": "ATplus",
            "subClass": 0,
            "bndTyp": "ANY"
          },
          "dirVec": {
            "x": -2.1480918912368194,
            "y": 1.2671530428764126,
            "z": -2.019672067757746
          }
        }
      ],
      "lstSymAPs": [],
      "mol": {
        "atoms": [
          {
            "elSymbol": "ATP",
            "p3d": {
              "x": -2.1652531118529774,
              "y": 1.2772663196593277,
              "z": -2.0130475572342648
            }
          }
        ],
        "bonds": []
      },
      "vertexId": 156,
      "buildingBlockId": 78,
      "buildingBlockType": "FRAGMENT",
      "isRCV": true,
      "properties": {
        "ATTACHMENT_POINTS": "1#ATplus:0:ANY:-2.1481%1.2672%-2.0197 "
      },
      "uniquefyingPropertyKeys": [],
      "allowedMutationTypes": [
        "DELETE",
        "EXTEND",
        "CHANGEBRANCH",
        "CHANGELINK",
        "ADDLINK",
        "DELETELINK",
        "DELETECHAIN"
      ],
      "vertexType": "MolecularFragment"
    },
    {
      "lstAPs": [
        {
          "id": 18046998,
          "atomPositionNumber": 0,
          "atomPositionNumberInMol": 14,
          "apClass": {
            "rule": "Xlig",
            "subClass": 1,
            "bndTyp": "SINGLE"
          },
          "dirVec": {
            "x": 2.9612,
            "y": 0.482,
            "z": 3.1597
          }
        },
        {
          "id": 18046999,
          "atomPositionNumber": 2,
          "atomPositionNumberInMol": 16,
          "apClass": {
            "rule": "bridge",
            "subClass": 1,
            "bndTyp": "SINGLE"
          },
          "dirVec": {
            "x": 0.31479999999999997,
            "y": 0.7222,
            "z": 2.0817
          }
        }
      ],
      "lstSymAPs": [],
      "mol": {
        "atoms": [
          {
            "elSymbol": "O",
            "p3d": {
              "x": 2.5349,
              "y": 1.3185,
              "z": 1.3621
            }
          },
          {
            "elSymbol": "O",
            "p3d": {
              "x": 0.8537,
              "y": 1.7439,
              "z": 0.0154
            }
          },
          {
            "elSymbol": "C",
            "p3d": {
              "x": 1.2704,
              "y": 1.2787,
              "z": 1.0674
            }
          }
        ],
        "bonds": [
          {
            "atomIds": [
              1,
              2
            ],
            "bo": "DOUBLE"
          },
          {
            "atomIds": [
              2,
              0
            ],
            "bo": "SINGLE"
          }
        ]
      },
      "vertexId": 9739,
      "buildingBlockId": 75,
      "buildingBlockType": "FRAGMENT",
      "isRCV": false,
      "properties": {
        "ATTACHMENT_POINTS": "1#Xlig:1:SINGLE:2.9612%0.4820%3.1597 3#bridge:1:SINGLE:0.3148%0.7222%2.0817 "
      },
      "uniquefyingPropertyKeys": [],
      "allowedMutationTypes": [
        "DELETE",
        "EXTEND",
        "CHANGEBRANCH",
        "CHANGELINK",
        "ADDLINK",
        "DELETELINK",
        "DELETECHAIN"
      ],
      "vertexType": "MolecularFragment"
    },
    {
      "lstAPs": [
        {
          "id": 18047000,
          "atomPositionNumber": 0,
          "atomPositionNumberInMol": 12,
          "apClass": {
            "rule": "hyd",
            "subClass": 1,
            "bndTyp": "SINGLE"
          },
          "dirVec": {
            "x": 0.4589,
            "y": -1.751,
            "z": 0.3869
          }
        }
      ],
      "lstSymAPs": [],
      "mol": {
        "atoms": [
          {
            "elSymbol": "H",
            "p3d": {
              "x": 0.1925,
              "y": -2.5024,
              "z": 1.1483
            }
          }
        ],
        "bonds": []
      },
      "vertexId": 9982,
      "buildingBlockId": 0,
      "buildingBlockType": "CAP",
      "isRCV": false,
      "properties": {
        "ATTACHMENT_POINTS": "1#hyd:1:SINGLE:0.4589%-1.7510%0.3869 "
      },
      "uniquefyingPropertyKeys": [],
      "allowedMutationTypes": [
        "DELETE",
        "EXTEND",
        "CHANGEBRANCH",
        "CHANGELINK",
        "ADDLINK",
        "DELETELINK",
        "DELETECHAIN"
      ],
      "vertexType": "MolecularFragment"
    },
    {
      "lstAPs": [
        {
          "id": 18047001,
          "atomPositionNumber": 0,
          "atomPositionNumberInMol": 13,
          "apClass": {
            "rule": "hyd",
            "subClass": 1,
            "bndTyp": "SINGLE"
          },
          "dirVec": {
            "x": 0.4589,
            "y": -1.751,
            "z": 0.3869
          }
        }
      ],
      "lstSymAPs": [],
      "mol": {
        "atoms": [
          {
            "elSymbol": "H",
            "p3d": {
              "x": 0.1925,
              "y": -2.5024,
              "z": 1.1483
            }
          }
        ],
        "bonds": []
      },
      "vertexId": 9747,
      "buildingBlockId": 0,
      "buildingBlockType": "CAP",
      "isRCV": false,
      "properties": {
        "ATTACHMENT_POINTS": "1#hyd:1:SINGLE:0.4589%-1.7510%0.3869 "
      },
      "uniquefyingPropertyKeys": [],
      "allowedMutationTypes": [
        "DELETE",
        "EXTEND",
        "CHANGEBRANCH",
        "CHANGELINK",
        "ADDLINK",
        "DELETELINK",
        "DELETECHAIN"
      ],
      "vertexType": "MolecularFragment"
    },
    {
      "lstAPs": [
        {
          "id": 18047002,
          "atomPositionNumber": 0,
          "atomPositionNumberInMol": 31,
          "apClass": {
            "rule": "Xlig",
            "subClass": 1,
            "bndTyp": "SINGLE"
          },
          "dirVec": {
            "x": 2.9612,
            "y": 0.482,
            "z": 3.1597
          }
        },
        {
          "id": 18047003,
          "atomPositionNumber": 2,
          "atomPositionNumberInMol": 33,
          "apClass": {
            "rule": "bridge",
            "subClass": 1,
            "bndTyp": "SINGLE"
          },
          "dirVec": {
            "x": 0.31479999999999997,
            "y": 0.7222,
            "z": 2.0817
          }
        }
      ],
      "lstSymAPs": [],
      "mol": {
        "atoms": [
          {
            "elSymbol": "O",
            "p3d": {
              "x": 2.5349,
              "y": 1.3185,
              "z": 1.3621
            }
          },
          {
            "elSymbol": "O",
            "p3d": {
              "x": 0.8537,
              "y": 1.7439,
              "z": 0.0154
            }
          },
          {
            "elSymbol": "C",
            "p3d": {
              "x": 1.2704,
              "y": 1.2787,
              "z": 1.0674
            }
          }
        ],
        "bonds": [
          {
            "atomIds": [
              1,
              2
            ],
            "bo": "DOUBLE"
          },
          {
            "atomIds": [
              2,
              0
            ],
            "bo": "SINGLE"
          }
        ]
      },
      "vertexId": 9980,
      "buildingBlockId": 75,
      "buildingBlockType": "FRAGMENT",
      "isRCV": false,
      "properties": {
        "ATTACHMENT_POINTS": "1#Xlig:1:SINGLE:2.9612%0.4820%3.1597 3#bridge:1:SINGLE:0.3148%0.7222%2.0817 "
      },
      "uniquefyingPropertyKeys": [],
      "allowedMutationTypes": [
        "DELETE",
        "EXTEND",
        "CHANGEBRANCH",
        "CHANGELINK",
        "ADDLINK",
        "DELETELINK",
        "DELETECHAIN"
      ],
      "vertexType": "MolecularFragment"
    },
    {
      "lstAPs": [
        {
          "id": 18047004,
          "atomPositionNumber": 0,
          "atomPositionNumberInMol": 34,
          "apClass": {
            "rule": "bridge",
            "subClass": 0,
            "bndTyp": "SINGLE"
          },
          "dirVec": {
            "x": -2.5958,
            "y": -0.6501,
            "z": -0.7558
          }
        },
        {
          "id": 18047005,
          "atomPositionNumber": 6,
          "atomPositionNumberInMol": 40,
          "apClass": {
            "rule": "bridge",
            "subClass": 0,
            "bndTyp": "SINGLE"
          },
          "dirVec": {
            "x": -0.8149,
            "y": 2.0931,
            "z": 0.1475
          }
        }
      ],
      "lstSymAPs": [],
      "mol": {
        "atoms": [
          {
            "elSymbol": "C",
            "p3d": {
              "x": -1.8258,
              "y": -0.5811,
              "z": 0.5645
            }
          },
          {
            "elSymbol": "C",
            "p3d": {
              "x": -0.3615,
              "y": -0.3647,
              "z": 0.2814
            }
          },
          {
            "elSymbol": "C",
            "p3d": {
              "x": 0.4975,
              "y": -1.4461,
              "z": 0.2179
            }
          },
          {
            "elSymbol": "C",
            "p3d": {
              "x": 1.8404,
              "y": -1.2477,
              "z": -0.0418
            }
          },
          {
            "elSymbol": "C",
            "p3d": {
              "x": 2.3248,
              "y": 0.0323,
              "z": -0.2386
            }
          },
          {
            "elSymbol": "C",
            "p3d": {
              "x": 1.4658,
              "y": 1.1133,
              "z": -0.1761
            }
          },
          {
            "elSymbol": "C",
            "p3d": {
              "x": 0.1217,
              "y": 0.9144,
              "z": 0.0794
            }
          },
          {
            "elSymbol": "H",
            "p3d": {
              "x": -2.206,
              "y": 0.246,
              "z": 1.164
            }
          },
          {
            "elSymbol": "H",
            "p3d": {
              "x": -1.956,
              "y": -1.5155,
              "z": 1.1104
            }
          },
          {
            "elSymbol": "H",
            "p3d": {
              "x": 0.1192,
              "y": -2.446,
              "z": 0.3716
            }
          },
          {
            "elSymbol": "H",
            "p3d": {
              "x": 2.5116,
              "y": -2.0924,
              "z": -0.0906
            }
          },
          {
            "elSymbol": "H",
            "p3d": {
              "x": 3.3743,
              "y": 0.1874,
              "z": -0.4409
            }
          },
          {
            "elSymbol": "H",
            "p3d": {
              "x": 1.8441,
              "y": 2.1132,
              "z": -0.3295
            }
          }
        ],
        "bonds": [
          {
            "atomIds": [
              0,
              1
            ],
            "bo": "SINGLE"
          },
          {
            "atomIds": [
              1,
              2
            ],
            "bo": "SINGLE"
          },
          {
            "atomIds": [
              2,
              3
            ],
            "bo": "DOUBLE"
          },
          {
            "atomIds": [
              3,
              4
            ],
            "bo": "SINGLE"
          },
          {
            "atomIds": [
              4,
              5
            ],
            "bo": "DOUBLE"
          },
          {
            "atomIds": [
              5,
              6
            ],
            "bo": "SINGLE"
          },
          {
            "atomIds": [
              1,
              6
            ],
            "bo": "DOUBLE"
          },
          {
            "atomIds": [
              0,
              7
            ],
            "bo": "SINGLE"
          },
          {
            "atomIds": [
              0,
              8
            ],
            "bo": "SINGLE"
          },
          {
            "atomIds": [
              2,
              9
            ],
            "bo": "SINGLE"
          },
          {
            "atomIds": [
              3,
              10
            ],
            "bo": "SINGLE"
          },
          {
            "atomIds": [
              4,
              11
            ],
            "bo": "SINGLE"
          },
          {
            "atomIds": [
              5,
              12
            ],
            "bo": "SINGLE"
          }
        ]
      },
      "vertexId": 204129,
      "buildingBlockId": 67,
      "buildingBlockType": "FRAGMENT",
      "isRCV": false,
      "properties": {
        "ATTACHMENT_POINTS": "1#bridge:0:SINGLE:-2.5958%-0.6501%-0.7558 7#bridge:0:SINGLE:-0.8149%2.0931%0.1475 "
      },
      "uniquefyingPropertyKeys": [],
      "allowedMutationTypes": [
        "DELETE",
        "EXTEND",
        "CHANGEBRANCH",
        "CHANGELINK",
        "ADDLINK",
        "DELETELINK",
        "DELETECHAIN"
      ],
      "vertexType": "MolecularFragment"
    },
    {
      "lstAPs": [
        {
          "id": 18047006,
          "atomPositionNumber": 0,
          "atomPositionNumberInMol": 17,
          "apClass": {
            "rule": "bridge",
            "subClass": 0,
            "bndTyp": "SINGLE"
          },
          "dirVec": {
            "x": -2.5958,
            "y": -0.6501,
            "z": -0.7558
          }
        },
        {
          "id": 18047007,
          "atomPositionNumber": 6,
          "atomPositionNumberInMol": 23,
          "apClass": {
            "rule": "bridge",
            "subClass": 0,
            "bndTyp": "SINGLE"
          },
          "dirVec": {
            "x": -0.8149,
            "y": 2.0931,
            "z": 0.1475
          }
        }
      ],
      "lstSymAPs": [],
      "mol": {
        "atoms": [
          {
            "elSymbol": "C",
            "p3d": {
              "x": -1.8258,
              "y": -0.5811,
              "z": 0.5645
            }
          },
          {
            "elSymbol": "C",
            "p3d": {
              "x": -0.3615,
              "y": -0.3647,
              "z": 0.2814
            }
          },
          {
            "elSymbol": "C",
            "p3d": {
              "x": 0.4975,
              "y": -1.4461,
              "z": 0.2179
            }
          },
          {
            "elSymbol": "C",
            "p3d": {
              "x": 1.8404,
              "y": -1.2477,
              "z": -0.0418
            }
          },
          {
            "elSymbol": "C",
            "p3d": {
              "x": 2.3248,
              "y": 0.0323,
              "z": -0.2386
            }
          },
          {
            "elSymbol": "C",
            "p3d": {
              "x": 1.4658,
              "y": 1.1133,
              "z": -0.1761
            }
          },
          {
            "elSymbol": "C",
            "p3d": {
              "x": 0.1217,
              "y": 0.9144,
              "z": 0.0794
            }
          },
          {
            "elSymbol": "H",
            "p3d": {
              "x": -2.206,
              "y": 0.246,
              "z": 1.164
            }
          },
          {
            "elSymbol": "H",
            "p3d": {
              "x": -1.956,
              "y": -1.5155,
              "z": 1.1104
            }
          },
          {
            "elSymbol": "H",
            "p3d": {
              "x": 0.1192,
              "y": -2.446,
              "z": 0.3716
            }
          },
          {
            "elSymbol": "H",
            "p3d": {
              "x": 2.5116,
              "y": -2.0924,
              "z": -0.0906
            }
          },
          {
            "elSymbol": "H",
            "p3d": {
              "x": 3.3743,
              "y": 0.1874,
              "z": -0.4409
            }
          },
          {
            "elSymbol": "H",
            "p3d": {
              "x": 1.8441,
              "y": 2.1132,
              "z": -0.3295
            }
          }
        ],
        "bonds": [
          {
            "atomIds": [
              0,
              1
            ],
            "bo": "SINGLE"
          },
          {
            "atomIds": [
              1,
              2
            ],
            "bo": "SINGLE"
          },
          {
            "atomIds": [
              2,
              3
            ],
            "bo": "DOUBLE"
          },
          {
            "atomIds": [
              3,
              4
            ],
            "bo": "SINGLE"
          },
          {
            "atomIds": [
              4,
              5
            ],
            "bo": "DOUBLE"
          },
          {
            "atomIds": [
              5,
              6
            ],
            "bo": "SINGLE"
          },
          {
            "atomIds": [
              1,
              6
            ],
            "bo": "DOUBLE"
          },
          {
            "atomIds": [
              0,
              7
            ],
            "bo": "SINGLE"
          },
          {
            "atomIds": [
              0,
              8
            ],
            "bo": "SINGLE"
          },
          {
            "atomIds": [
              2,
              9
            ],
            "bo": "SINGLE"
          },
          {
            "atomIds": [
              3,
              10
            ],
            "bo": "SINGLE"
          },
          {
            "atomIds": [
              4,
              11
            ],
            "bo": "SINGLE"
          },
          {
            "atomIds": [
              5,
              12
            ],
            "bo": "SINGLE"
          }
        ]
      },
      "vertexId": 203990,
      "buildingBlockId": 67,
      "buildingBlockType": "FRAGMENT",
      "isRCV": false,
      "properties": {
        "ATTACHMENT_POINTS": "1#bridge:0:SINGLE:-2.5958%-0.6501%-0.7558 7#bridge:0:SINGLE:-0.8149%2.0931%0.1475 "
      },
      "uniquefyingPropertyKeys": [],
      "allowedMutationTypes": [
        "DELETE",
        "EXTEND",
        "CHANGEBRANCH",
        "CHANGELINK",
        "ADDLINK",
        "DELETELINK",
        "DELETECHAIN"
      ],
      "vertexType": "MolecularFragment"
    },
    {
      "lstAPs": [
        {
          "id": 18047032,
          "atomPositionNumber": 0,
          "atomPositionNumberInMol": 30,
          "apClass": {
            "rule": "ATminus",
            "subClass": 0,
            "bndTyp": "ANY"
          },
          "dirVec": {
            "x": 0.0109,
            "y": -0.0071,
            "z": 0.0026
          }
        }
      ],
      "lstSymAPs": [],
      "mol": {
        "atoms": [
          {
            "elSymbol": "ATM",
            "p3d": {
              "x": -0.0096,
              "y": 0.0045,
              "z": -0.0011
            }
          }
        ],
        "bonds": []
      },
      "vertexId": 10779122,
      "buildingBlockId": 79,
      "buildingBlockType": "FRAGMENT",
      "isRCV": true,
      "properties": {
        "ATTACHMENT_POINTS": "1#ATminus:0:ANY:0.0109%-0.0071%0.0026 "
      },
      "uniquefyingPropertyKeys": [],
      "allowedMutationTypes": [
        "DELETE",
        "EXTEND",
        "CHANGEBRANCH",
        "CHANGELINK",
        "ADDLINK",
        "DELETELINK",
        "DELETECHAIN"
      ],
      "vertexType": "MolecularFragment"
    },
    {
      "lstAPs": [
        {
          "id": 18047033,
          "atomPositionNumber": 0,
          "atomPositionNumberInMol": 47,
          "apClass": {
            "rule": "ATminus",
            "subClass": 0,
            "bndTyp": "ANY"
          },
          "dirVec": {
            "x": 0.0109,
            "y": -0.0071,
            "z": 0.0026
          }
        }
      ],
      "lstSymAPs": [],
      "mol": {
        "atoms": [
          {
            "elSymbol": "ATM",
            "p3d": {
              "x": -0.0096,
              "y": 0.0045,
              "z": -0.0011
            }
          }
        ],
        "bonds": []
      },
      "vertexId": 10779112,
      "buildingBlockId": 79,
      "buildingBlockType": "FRAGMENT",
      "isRCV": true,
      "properties": {
        "ATTACHMENT_POINTS": "1#ATminus:0:ANY:0.0109%-0.0071%0.0026 "
      },
      "uniquefyingPropertyKeys": [],
      "allowedMutationTypes": [
        "DELETE",
        "EXTEND",
        "CHANGEBRANCH",
        "CHANGELINK",
        "ADDLINK",
        "DELETELINK",
        "DELETECHAIN"
      ],
      "vertexType": "MolecularFragment"
    }
  ],
  "gEdges": [
    {
      "srcAPID": 18046990,
      "trgAPID": 18046991,
      "bondType": "SINGLE"
    },
    {
      "srcAPID": 18046992,
      "trgAPID": 18046996,
      "bondType": "SINGLE"
    },
    {
      "srcAPID": 18046995,
      "trgAPID": 18046997,
      "bondType": "SINGLE"
    },
    {
      "srcAPID": 18046988,
      "trgAPID": 18046998,
      "bondType": "SINGLE"
    },
    {
      "srcAPID": 18046994,
      "trgAPID": 18047000,
      "bondType": "SINGLE"
    },
    {
      "srcAPID": 18046993,
      "trgAPID": 18047001,
      "bondType": "SINGLE"
    },
    {
      "srcAPID": 18046989,
      "trgAPID": 18047002,
      "bondType": "SINGLE"
    },
    {
      "srcAPID": 18047003,
      "trgAPID": 18047005,
      "bondType": "SINGLE"
    },
    {
      "srcAPID": 18046999,
      "trgAPID": 18047007,
      "bondType": "SINGLE"
    },
    {
      "srcAPID": 18047006,
      "trgAPID": 18047032,
      "bondType": "SINGLE"
    },
    {
      "srcAPID": 18047004,
      "trgAPID": 18047033,
      "bondType": "SINGLE"
    }
  ],
  "gRings": [],
  "symVertices": [
    {
      "symIds": [
        155,
        156
      ]
    },
    {
      "symIds": [
        9739,
        9980
      ]
    },
    {
      "symIds": [
        9982,
        9747
      ]
    },
    {
      "symIds": [
        204129,
        203990
      ]
    },
    {
      "symIds": [
        10779122,
        10779112
      ]
    }
  ]
}

> <SMILES>
[Pt](C#O)([C]1N(C(=C(N1[H])[H])[H])[H])(OC(=O)C=2C(=C(C(=C(C2C([H])([H])[H])[H])[H])[H])[H])OC(=O)C=3C(=C(C(=C(C3C([H])([H])[H])[H])[H])[H])[H]

$$$$
