M30082939
  CDK     05082206153D

 46 50  0  0  0  0  0  0  0  0999 V2000
   -0.1555    2.2279   -0.0410 Pt  0  0  0  0  0  0  0  0  0  0  0  0
   -0.1384    4.1807   -0.0359 C   0  0  0  0  0  0  0  0  0  0  0  0
   -0.1285    5.3227   -0.0327 O   0  0  0  0  0  0  0  0  0  0  0  0
    0.9168   -0.5738    0.1242 N   0  0  1  0  0  0  0  0  0  0  0  0
   -1.2989   -0.5238   -0.1976 N   0  0  1  0  0  0  0  0  0  0  0  0
   -0.1754    0.2268   -0.0430 C   0  0  1  0  0  0  0  0  0  0  0  0
    0.5552   -2.0461    0.1186 C   0  0  0  0  0  0  0  0  0  0  0  0
   -1.0010   -1.9850   -0.1490 C   0  0  0  0  0  0  0  0  0  0  0  0
   -1.5820   -2.4744    0.6581 H   0  0  0  0  0  0  0  0  0  0  0  0
   -1.2787   -2.4662   -1.1074 H   0  0  0  0  0  0  0  0  0  0  0  0
    0.8597   -2.6613    1.4828 C   0  0  0  0  0  0  0  0  0  0  0  0
    0.5314   -3.7062    1.5341 H   0  0  0  0  0  0  0  0  0  0  0  0
    1.9338   -2.6526    1.7067 H   0  0  0  0  0  0  0  0  0  0  0  0
    0.3623   -2.1177    2.2987 H   0  0  0  0  0  0  0  0  0  0  0  0
    1.2834   -2.7753   -1.0055 C   0  0  0  0  0  0  0  0  0  0  0  0
    1.1566   -2.2671   -1.9732 H   0  0  0  0  0  0  0  0  0  0  0  0
    2.3656   -2.8239   -0.8263 H   0  0  0  0  0  0  0  0  0  0  0  0
    0.9281   -3.8056   -1.1181 H   0  0  0  0  0  0  0  0  0  0  0  0
    1.5677    2.5195   -1.1295 O   0  0  0  0  0  0  0  0  0  0  0  0
    2.2775    0.0074    0.2527 C   0  0  0  0  0  0  0  0  0  0  0  0
    2.7891    0.4188   -1.0962 C   0  0  0  0  0  0  0  0  0  0  0  0
    3.7129   -0.3873   -1.7811 C   0  0  0  0  0  0  0  0  0  0  0  0
    4.2022   -0.0225   -3.0316 C   0  0  0  0  0  0  0  0  0  0  0  0
    3.7688    1.1732   -3.6306 C   0  0  0  0  0  0  0  0  0  0  0  0
    2.8554    1.9916   -2.9857 C   0  0  0  0  0  0  0  0  0  0  0  0
    2.3614    1.6197   -1.7075 C   0  0  0  0  0  0  0  0  0  0  0  0
    2.2153    0.8992    0.9314 H   0  0  0  0  0  0  0  0  0  0  0  0
    2.9457   -0.7326    0.7436 H   0  0  0  0  0  0  0  0  0  0  0  0
    4.0594   -1.3115   -1.3190 H   0  0  0  0  0  0  0  0  0  0  0  0
    4.9210   -0.6539   -3.5455 H   0  0  0  0  0  0  0  0  0  0  0  0
    4.1550    1.4552   -4.6103 H   0  0  0  0  0  0  0  0  0  0  0  0
    2.5083    2.9240   -3.4248 H   0  0  0  0  0  0  0  0  0  0  0  0
   -1.8725    2.5534    1.0559 O   0  0  0  0  0  0  0  0  0  0  0  0
   -2.6461    0.0785   -0.3466 C   0  0  0  0  0  0  0  0  0  0  0  0
   -3.1595    0.4940    0.9989 C   0  0  0  0  0  0  0  0  0  0  0  0
   -4.1050   -0.2956    1.6734 C   0  0  0  0  0  0  0  0  0  0  0  0
   -4.5974    0.0780    2.9196 C   0  0  0  0  0  0  0  0  0  0  0  0
   -4.1424    1.2631    3.5250 C   0  0  0  0  0  0  0  0  0  0  0  0
   -3.2024    2.0607    2.8930 C   0  0  0  0  0  0  0  0  0  0  0  0
   -2.7032    1.6801    1.6190 C   0  0  0  0  0  0  0  0  0  0  0  0
   -2.5566    0.9713   -1.0219 H   0  0  0  0  0  0  0  0  0  0  0  0
   -3.3221   -0.6470   -0.8484 H   0  0  0  0  0  0  0  0  0  0  0  0
   -4.4638   -1.2125    1.2066 H   0  0  0  0  0  0  0  0  0  0  0  0
   -5.3343   -0.5381    3.4261 H   0  0  0  0  0  0  0  0  0  0  0  0
   -4.5328    1.5522    4.5011 H   0  0  0  0  0  0  0  0  0  0  0  0
   -2.8362    2.9822    3.3394 H   0  0  0  0  0  0  0  0  0  0  0  0
  2  3  3  0  0  0  0
  1  2  1  0  0  0  0
  4  6  1  0  0  0  0
  5  6  1  0  0  0  0
  7  4  1  0  0  0  0
  7  8  1  0  0  0  0
  8  5  1  0  0  0  0
  9  8  1  0  0  0  0
 10  8  1  0  0  0  0
  1  6  1  0  0  0  0
 11 12  1  0  0  0  0
 11 13  1  0  0  0  0
 11 14  1  0  0  0  0
  7 11  1  0  0  0  0
 15 16  1  0  0  0  0
 15 17  1  0  0  0  0
 15 18  1  0  0  0  0
  7 15  1  0  0  0  0
  1 19  1  0  0  0  0
 20 21  1  0  0  0  0
 21 22  1  0  0  0  0
 22 23  2  0  0  0  0
 23 24  1  0  0  0  0
 24 25  2  0  0  0  0
 25 26  1  0  0  0  0
 21 26  2  0  0  0  0
 20 27  1  0  0  0  0
 20 28  1  0  0  0  0
 22 29  1  0  0  0  0
 23 30  1  0  0  0  0
 24 31  1  0  0  0  0
 25 32  1  0  0  0  0
 19 26  1  0  0  0  0
  1 33  1  0  0  0  0
 34 35  1  0  0  0  0
 35 36  1  0  0  0  0
 36 37  2  0  0  0  0
 37 38  1  0  0  0  0
 38 39  2  0  0  0  0
 39 40  1  0  0  0  0
 35 40  2  0  0  0  0
 34 41  1  0  0  0  0
 34 42  1  0  0  0  0
 36 43  1  0  0  0  0
 37 44  1  0  0  0  0
 38 45  1  0  0  0  0
 39 46  1  0  0  0  0
 33 40  1  0  0  0  0
  4 20  1  0  0  0  0
  5 34  1  0  0  0  0
M  END
> <PM6_ENERGY>
-69.300

> <UID>
MGVGQPVXHBDNBJ-MPYSIYKKNA-L

> <FITNESS>
1.14205

> <GCODE>
184671

> <GraphENC>
184671 10209719_1_0,10209720_61_1,10209721_79_1,10209722_79_1,10209723_24_1,10209750_73_1,10209751_73_1,10209752_24_1,10209753_68_1,10209754_68_1,10209755_80_1,10209756_80_1, 10209719_2_10209720_2_SINGLE_scaff:0_MImidazolidinylidene:1,10209720_0_10209721_0_SINGLE_LImidazolidinylideneSubNL:0_ATplus:0,10209720_1_10209722_0_SINGLE_LImidazolidinylideneSubNL:0_ATplus:0,10209720_3_10209723_0_SINGLE_LImidazolidinylideneSubCS:0_SubRS:1,10209719_0_10209750_0_SINGLE_Xlig:0_Xlig:1,10209719_1_10209751_0_SINGLE_Xlig:0_Xlig:1,10209720_4_10209752_0_SINGLE_LImidazolidinylideneSubCS:0_SubRS:1,10209750_1_10209753_1_SINGLE_bridge:1_bridge:0,10209751_1_10209754_1_SINGLE_bridge:1_bridge:0,10209754_0_10209755_0_SINGLE_bridge:0_ATminus:0,10209753_0_10209756_0_SINGLE_bridge:0_ATminus:0, DENOPTIMRing [vertices=[10209721_79_1, 10209720_61_1, 10209719_1_0, 10209750_73_1, 10209753_68_1, 10209756_80_1]] DENOPTIMRing [vertices=[10209722_79_1, 10209720_61_1, 10209719_1_0, 10209751_73_1, 10209754_68_1, 10209755_80_1]] SymmetricSet [symIds=[10209721, 10209722]] SymmetricSet [symIds=[10209750, 10209751]] SymmetricSet [symIds=[10209723, 10209752]] SymmetricSet [symIds=[10209753, 10209754]] SymmetricSet [symIds=[10209755, 10209756]] 

> <GraphJson>
{
  "graphId": 184671,
  "gVertices": [
    {
      "lstAPs": [
        {
          "id": 17093460,
          "atomPositionNumber": 0,
          "atomPositionNumberInMol": -1,
          "apClass": {
            "rule": "Xlig",
            "subClass": 0,
            "bndTyp": "SINGLE"
          },
          "dirVec": {
            "x": -2.3339,
            "y": -0.0087,
            "z": 0.8172
          }
        },
        {
          "id": 17093461,
          "atomPositionNumber": 0,
          "atomPositionNumberInMol": -1,
          "apClass": {
            "rule": "Xlig",
            "subClass": 0,
            "bndTyp": "SINGLE"
          },
          "dirVec": {
            "x": 2.336,
            "y": -5.0E-4,
            "z": 0.829
          }
        },
        {
          "id": 17093462,
          "atomPositionNumber": 0,
          "atomPositionNumberInMol": -1,
          "apClass": {
            "rule": "scaff",
            "subClass": 0,
            "bndTyp": "SINGLE"
          },
          "dirVec": {
            "x": -0.0095,
            "y": 0.0046,
            "z": -1.7113
          }
        }
      ],
      "lstSymAPs": [
        {
          "symIds": [
            0,
            1
          ]
        }
      ],
      "mol": {
        "atoms": [
          {
            "elSymbol": "Pt",
            "p3d": {
              "x": -0.0098,
              "y": 0.0049,
              "z": 0.6289
            }
          },
          {
            "elSymbol": "C",
            "p3d": {
              "x": -6.0E-4,
              "y": 0.0016,
              "z": 2.5609
            }
          },
          {
            "elSymbol": "O",
            "p3d": {
              "x": 0.0025,
              "y": -0.0041,
              "z": 3.6974
            }
          },
          {
            "elSymbol": "Du",
            "p3d": {
              "x": -0.007,
              "y": 1.0013,
              "z": 0.6372
            }
          },
          {
            "elSymbol": "Du",
            "p3d": {
              "x": -0.0014,
              "y": 0.9902,
              "z": 2.5698
            }
          }
        ],
        "bonds": [
          {
            "atomIds": [
              1,
              2
            ],
            "bo": "TRIPLE"
          },
          {
            "atomIds": [
              0,
              1
            ],
            "bo": "SINGLE"
          },
          {
            "atomIds": [
              3,
              0
            ],
            "bo": "SINGLE"
          },
          {
            "atomIds": [
              4,
              1
            ],
            "bo": "SINGLE"
          }
        ]
      },
      "vertexId": 10209719,
      "buildingBlockId": 0,
      "buildingBlockType": "SCAFFOLD",
      "isRCV": false,
      "properties": {
        "ATTACHMENT_POINTS": "1#Xlig:0:SINGLE:-2.3339%-0.0087%0.8172,Xlig:0:SINGLE:2.3360%-0.0005%0.8290,scaff:0:SINGLE:-0.0095%0.0046%-1.7113 ",
        "OLDVERTEXID": 209
      },
      "uniquefyingPropertyKeys": [],
      "allowedMutationTypes": [
        "DELETE",
        "EXTEND",
        "CHANGEBRANCH",
        "CHANGELINK",
        "ADDLINK",
        "DELETELINK",
        "DELETECHAIN"
      ],
      "vertexType": "MolecularFragment"
    },
    {
      "lstAPs": [
        {
          "id": 17093463,
          "atomPositionNumber": 0,
          "atomPositionNumberInMol": -1,
          "apClass": {
            "rule": "LImidazolidinylideneSubNL",
            "subClass": 0,
            "bndTyp": "SINGLE"
          },
          "dirVec": {
            "x": 0.2882482759260379,
            "y": -2.4550195985517003,
            "z": -1.6863516588387322
          }
        },
        {
          "id": 17093464,
          "atomPositionNumber": 1,
          "atomPositionNumberInMol": -1,
          "apClass": {
            "rule": "LImidazolidinylideneSubNL",
            "subClass": 0,
            "bndTyp": "SINGLE"
          },
          "dirVec": {
            "x": 0.1328821337280647,
            "y": 2.5088062068851067,
            "z": -2.172170581008468
          }
        },
        {
          "id": 17093465,
          "atomPositionNumber": 2,
          "atomPositionNumberInMol": -1,
          "apClass": {
            "rule": "MImidazolidinylidene",
            "subClass": 1,
            "bndTyp": "SINGLE"
          },
          "dirVec": {
            "x": -0.00977984519430624,
            "y": 0.004879845194306149,
            "z": 0.47167907905161655
          }
        },
        {
          "id": 17093466,
          "atomPositionNumber": 3,
          "atomPositionNumberInMol": -1,
          "apClass": {
            "rule": "LImidazolidinylideneSubCS",
            "subClass": 0,
            "bndTyp": "SINGLE"
          },
          "dirVec": {
            "x": -0.9952052299975417,
            "y": -1.6236459098745568,
            "z": -4.489065505792757
          }
        },
        {
          "id": 17093467,
          "atomPositionNumber": 3,
          "atomPositionNumberInMol": -1,
          "apClass": {
            "rule": "LImidazolidinylideneSubCS",
            "subClass": 0,
            "bndTyp": "SINGLE"
          },
          "dirVec": {
            "x": 1.4957057023199845,
            "y": -1.3536466985452669,
            "z": -4.280442177416974
          }
        }
      ],
      "lstSymAPs": [
        {
          "symIds": [
            0,
            1
          ]
        },
        {
          "symIds": [
            3,
            4
          ]
        }
      ],
      "mol": {
        "atoms": [
          {
            "elSymbol": "N",
            "p3d": {
              "x": 0.03578295116087008,
              "y": -1.1405070380389195,
              "z": -2.2647794313785288
            }
          },
          {
            "elSymbol": "N",
            "p3d": {
              "x": -0.08216887436027295,
              "y": 1.0403961354443017,
              "z": -2.407451659744955
            }
          },
          {
            "elSymbol": "C",
            "p3d": {
              "x": -0.009520154805693761,
              "y": 0.004620154805693851,
              "z": -1.5540790790516166
            }
          },
          {
            "elSymbol": "C",
            "p3d": {
              "x": 0.1388379340141097,
              "y": -0.9112501764285554,
              "z": -3.7221273589214623
            }
          },
          {
            "elSymbol": "C",
            "p3d": {
              "x": -0.06411788260394655,
              "y": 0.5954250999692482,
              "z": -3.810957184951348
            }
          },
          {
            "elSymbol": "H",
            "p3d": {
              "x": -0.9982511685081745,
              "y": 0.814350519948595,
              "z": -4.309516514071401
            }
          },
          {
            "elSymbol": "H",
            "p3d": {
              "x": 0.7198692778677406,
              "y": 1.0817584578440065,
              "z": -4.372236658327848
            }
          }
        ],
        "bonds": [
          {
            "atomIds": [
              0,
              2
            ],
            "bo": "SINGLE"
          },
          {
            "atomIds": [
              1,
              2
            ],
            "bo": "SINGLE"
          },
          {
            "atomIds": [
              3,
              0
            ],
            "bo": "SINGLE"
          },
          {
            "atomIds": [
              3,
              4
            ],
            "bo": "SINGLE"
          },
          {
            "atomIds": [
              4,
              1
            ],
            "bo": "SINGLE"
          },
          {
            "atomIds": [
              5,
              4
            ],
            "bo": "SINGLE"
          },
          {
            "atomIds": [
              6,
              4
            ],
            "bo": "SINGLE"
          }
        ]
      },
      "vertexId": 10209720,
      "buildingBlockId": 60,
      "buildingBlockType": "FRAGMENT",
      "isRCV": false,
      "properties": {
        "ATTACHMENT_POINTS": "1#LImidazolidinylideneSubNL:0:SINGLE:0.2882%-2.4550%-1.6864 2#LImidazolidinylideneSubNL:0:SINGLE:0.1329%2.5088%-2.1722 3#MImidazolidinylidene:1:SINGLE:-0.0098%0.0049%0.4717 4#LImidazolidinylideneSubCS:0:SINGLE:-0.9952%-1.6236%-4.4891,LImidazolidinylideneSubCS:0:SINGLE:1.4957%-1.3536%-4.2804 ",
        "OLDVERTEXID": 210
      },
      "uniquefyingPropertyKeys": [],
      "allowedMutationTypes": [
        "DELETE",
        "EXTEND",
        "CHANGEBRANCH",
        "CHANGELINK",
        "ADDLINK",
        "DELETELINK",
        "DELETECHAIN"
      ],
      "vertexType": "MolecularFragment"
    },
    {
      "lstAPs": [
        {
          "id": 17093468,
          "atomPositionNumber": 0,
          "atomPositionNumberInMol": -1,
          "apClass": {
            "rule": "ATplus",
            "subClass": 0,
            "bndTyp": "ANY"
          },
          "dirVec": {
            "x": 0.2882482759260379,
            "y": -2.4550195985517003,
            "z": -1.6863516588387322
          }
        }
      ],
      "lstSymAPs": [],
      "mol": {
        "atoms": [
          {
            "elSymbol": "ATP",
            "p3d": {
              "x": 0.29188282238316376,
              "y": -2.473943611083335,
              "z": -1.6780244851433217
            }
          }
        ],
        "bonds": []
      },
      "vertexId": 10209721,
      "buildingBlockId": 78,
      "buildingBlockType": "FRAGMENT",
      "isRCV": true,
      "properties": {
        "ATTACHMENT_POINTS": "1#ATplus:0:ANY:0.2882%-2.4550%-1.6864 ",
        "OLDVERTEXID": 211
      },
      "uniquefyingPropertyKeys": [],
      "allowedMutationTypes": [
        "DELETE",
        "EXTEND",
        "CHANGEBRANCH",
        "CHANGELINK",
        "ADDLINK",
        "DELETELINK",
        "DELETECHAIN"
      ],
      "vertexType": "MolecularFragment"
    },
    {
      "lstAPs": [
        {
          "id": 17093469,
          "atomPositionNumber": 0,
          "atomPositionNumberInMol": -1,
          "apClass": {
            "rule": "ATplus",
            "subClass": 0,
            "bndTyp": "ANY"
          },
          "dirVec": {
            "x": 0.1328821337280647,
            "y": 2.5088062068851067,
            "z": -2.172170581008468
          }
        }
      ],
      "lstSymAPs": [],
      "mol": {
        "atoms": [
          {
            "elSymbol": "ATP",
            "p3d": {
              "x": 0.13588649661527483,
              "y": 2.5293205804798125,
              "z": -2.168883594598582
            }
          }
        ],
        "bonds": []
      },
      "vertexId": 10209722,
      "buildingBlockId": 78,
      "buildingBlockType": "FRAGMENT",
      "isRCV": true,
      "properties": {
        "ATTACHMENT_POINTS": "1#ATplus:0:ANY:0.1329%2.5088%-2.1722 ",
        "OLDVERTEXID": 212
      },
      "uniquefyingPropertyKeys": [],
      "allowedMutationTypes": [
        "DELETE",
        "EXTEND",
        "CHANGEBRANCH",
        "CHANGELINK",
        "ADDLINK",
        "DELETELINK",
        "DELETECHAIN"
      ],
      "vertexType": "MolecularFragment"
    },
    {
      "lstAPs": [
        {
          "id": 17093470,
          "atomPositionNumber": 0,
          "atomPositionNumberInMol": -1,
          "apClass": {
            "rule": "SubRS",
            "subClass": 1,
            "bndTyp": "SINGLE"
          },
          "dirVec": {
            "x": 0.2865,
            "y": 0.3959,
            "z": -0.6387
          }
        }
      ],
      "lstSymAPs": [],
      "mol": {
        "atoms": [
          {
            "elSymbol": "C",
            "p3d": {
              "x": 0.3969,
              "y": -0.0496,
              "z": 0.8235
            }
          },
          {
            "elSymbol": "H",
            "p3d": {
              "x": -0.6146,
              "y": -0.163,
              "z": 1.2402
            }
          },
          {
            "elSymbol": "H",
            "p3d": {
              "x": 0.9335,
              "y": -0.9979,
              "z": 0.8998
            }
          },
          {
            "elSymbol": "H",
            "p3d": {
              "x": 0.9252,
              "y": 0.7237,
              "z": 1.3995
            }
          }
        ],
        "bonds": [
          {
            "atomIds": [
              0,
              1
            ],
            "bo": "SINGLE"
          },
          {
            "atomIds": [
              0,
              2
            ],
            "bo": "SINGLE"
          },
          {
            "atomIds": [
              0,
              3
            ],
            "bo": "SINGLE"
          }
        ]
      },
      "vertexId": 10209723,
      "buildingBlockId": 23,
      "buildingBlockType": "FRAGMENT",
      "isRCV": false,
      "properties": {
        "ATTACHMENT_POINTS": "1#SubRS:1:SINGLE:0.2865%0.3959%-0.6387 ",
        "OLDVERTEXID": 9290
      },
      "uniquefyingPropertyKeys": [],
      "allowedMutationTypes": [
        "DELETE",
        "EXTEND",
        "CHANGEBRANCH",
        "CHANGELINK",
        "ADDLINK",
        "DELETELINK",
        "DELETECHAIN"
      ],
      "vertexType": "MolecularFragment"
    },
    {
      "lstAPs": [
        {
          "id": 17093471,
          "atomPositionNumber": 0,
          "atomPositionNumberInMol": -1,
          "apClass": {
            "rule": "Xlig",
            "subClass": 1,
            "bndTyp": "SINGLE"
          },
          "dirVec": {
            "x": -0.1753,
            "y": 0.0948,
            "z": -0.4464
          }
        },
        {
          "id": 17093472,
          "atomPositionNumber": 0,
          "atomPositionNumberInMol": -1,
          "apClass": {
            "rule": "bridge",
            "subClass": 1,
            "bndTyp": "SINGLE"
          },
          "dirVec": {
            "x": -0.5345,
            "y": 2.7646,
            "z": 0.48009999999999997
          }
        }
      ],
      "lstSymAPs": [],
      "mol": {
        "atoms": [
          {
            "elSymbol": "O",
            "p3d": {
              "x": -0.3534,
              "y": 2.1044,
              "z": -0.7339
            }
          }
        ],
        "bonds": []
      },
      "vertexId": 10209750,
      "buildingBlockId": 72,
      "buildingBlockType": "FRAGMENT",
      "isRCV": false,
      "properties": {
        "ATTACHMENT_POINTS": "1#Xlig:1:SINGLE:-0.1753%0.0948%-0.4464,bridge:1:SINGLE:-0.5345%2.7646%0.4801 ",
        "OLDVERTEXID": 9282
      },
      "uniquefyingPropertyKeys": [],
      "allowedMutationTypes": [
        "DELETE",
        "EXTEND",
        "CHANGEBRANCH",
        "CHANGELINK",
        "ADDLINK",
        "DELETELINK",
        "DELETECHAIN"
      ],
      "vertexType": "MolecularFragment"
    },
    {
      "lstAPs": [
        {
          "id": 17093473,
          "atomPositionNumber": 0,
          "atomPositionNumberInMol": -1,
          "apClass": {
            "rule": "Xlig",
            "subClass": 1,
            "bndTyp": "SINGLE"
          },
          "dirVec": {
            "x": -0.1753,
            "y": 0.0948,
            "z": -0.4464
          }
        },
        {
          "id": 17093474,
          "atomPositionNumber": 0,
          "atomPositionNumberInMol": -1,
          "apClass": {
            "rule": "bridge",
            "subClass": 1,
            "bndTyp": "SINGLE"
          },
          "dirVec": {
            "x": -0.5345,
            "y": 2.7646,
            "z": 0.48009999999999997
          }
        }
      ],
      "lstSymAPs": [],
      "mol": {
        "atoms": [
          {
            "elSymbol": "O",
            "p3d": {
              "x": -0.3534,
              "y": 2.1044,
              "z": -0.7339
            }
          }
        ],
        "bonds": []
      },
      "vertexId": 10209751,
      "buildingBlockId": 72,
      "buildingBlockType": "FRAGMENT",
      "isRCV": false,
      "properties": {
        "ATTACHMENT_POINTS": "1#Xlig:1:SINGLE:-0.1753%0.0948%-0.4464,bridge:1:SINGLE:-0.5345%2.7646%0.4801 ",
        "OLDVERTEXID": 9302
      },
      "uniquefyingPropertyKeys": [],
      "allowedMutationTypes": [
        "DELETE",
        "EXTEND",
        "CHANGEBRANCH",
        "CHANGELINK",
        "ADDLINK",
        "DELETELINK",
        "DELETECHAIN"
      ],
      "vertexType": "MolecularFragment"
    },
    {
      "lstAPs": [
        {
          "id": 17093475,
          "atomPositionNumber": 0,
          "atomPositionNumberInMol": -1,
          "apClass": {
            "rule": "SubRS",
            "subClass": 1,
            "bndTyp": "SINGLE"
          },
          "dirVec": {
            "x": 0.2865,
            "y": 0.3959,
            "z": -0.6387
          }
        }
      ],
      "lstSymAPs": [],
      "mol": {
        "atoms": [
          {
            "elSymbol": "C",
            "p3d": {
              "x": 0.3969,
              "y": -0.0496,
              "z": 0.8235
            }
          },
          {
            "elSymbol": "H",
            "p3d": {
              "x": -0.6146,
              "y": -0.163,
              "z": 1.2402
            }
          },
          {
            "elSymbol": "H",
            "p3d": {
              "x": 0.9335,
              "y": -0.9979,
              "z": 0.8998
            }
          },
          {
            "elSymbol": "H",
            "p3d": {
              "x": 0.9252,
              "y": 0.7237,
              "z": 1.3995
            }
          }
        ],
        "bonds": [
          {
            "atomIds": [
              0,
              1
            ],
            "bo": "SINGLE"
          },
          {
            "atomIds": [
              0,
              2
            ],
            "bo": "SINGLE"
          },
          {
            "atomIds": [
              0,
              3
            ],
            "bo": "SINGLE"
          }
        ]
      },
      "vertexId": 10209752,
      "buildingBlockId": 23,
      "buildingBlockType": "FRAGMENT",
      "isRCV": false,
      "properties": {
        "ATTACHMENT_POINTS": "1#SubRS:1:SINGLE:0.2865%0.3959%-0.6387 ",
        "OLDVERTEXID": 9301
      },
      "uniquefyingPropertyKeys": [],
      "allowedMutationTypes": [
        "DELETE",
        "EXTEND",
        "CHANGEBRANCH",
        "CHANGELINK",
        "ADDLINK",
        "DELETELINK",
        "DELETECHAIN"
      ],
      "vertexType": "MolecularFragment"
    },
    {
      "lstAPs": [
        {
          "id": 17093476,
          "atomPositionNumber": 0,
          "atomPositionNumberInMol": -1,
          "apClass": {
            "rule": "bridge",
            "subClass": 0,
            "bndTyp": "SINGLE"
          },
          "dirVec": {
            "x": -2.5958,
            "y": -0.6501,
            "z": -0.7558
          }
        },
        {
          "id": 17093477,
          "atomPositionNumber": 6,
          "atomPositionNumberInMol": -1,
          "apClass": {
            "rule": "bridge",
            "subClass": 0,
            "bndTyp": "SINGLE"
          },
          "dirVec": {
            "x": -0.8149,
            "y": 2.0931,
            "z": 0.1475
          }
        }
      ],
      "lstSymAPs": [],
      "mol": {
        "atoms": [
          {
            "elSymbol": "C",
            "p3d": {
              "x": -1.8258,
              "y": -0.5811,
              "z": 0.5645
            }
          },
          {
            "elSymbol": "C",
            "p3d": {
              "x": -0.3615,
              "y": -0.3647,
              "z": 0.2814
            }
          },
          {
            "elSymbol": "C",
            "p3d": {
              "x": 0.4975,
              "y": -1.4461,
              "z": 0.2179
            }
          },
          {
            "elSymbol": "C",
            "p3d": {
              "x": 1.8404,
              "y": -1.2477,
              "z": -0.0418
            }
          },
          {
            "elSymbol": "C",
            "p3d": {
              "x": 2.3248,
              "y": 0.0323,
              "z": -0.2386
            }
          },
          {
            "elSymbol": "C",
            "p3d": {
              "x": 1.4658,
              "y": 1.1133,
              "z": -0.1761
            }
          },
          {
            "elSymbol": "C",
            "p3d": {
              "x": 0.1217,
              "y": 0.9144,
              "z": 0.0794
            }
          },
          {
            "elSymbol": "H",
            "p3d": {
              "x": -2.206,
              "y": 0.246,
              "z": 1.164
            }
          },
          {
            "elSymbol": "H",
            "p3d": {
              "x": -1.956,
              "y": -1.5155,
              "z": 1.1104
            }
          },
          {
            "elSymbol": "H",
            "p3d": {
              "x": 0.1192,
              "y": -2.446,
              "z": 0.3716
            }
          },
          {
            "elSymbol": "H",
            "p3d": {
              "x": 2.5116,
              "y": -2.0924,
              "z": -0.0906
            }
          },
          {
            "elSymbol": "H",
            "p3d": {
              "x": 3.3743,
              "y": 0.1874,
              "z": -0.4409
            }
          },
          {
            "elSymbol": "H",
            "p3d": {
              "x": 1.8441,
              "y": 2.1132,
              "z": -0.3295
            }
          }
        ],
        "bonds": [
          {
            "atomIds": [
              0,
              1
            ],
            "bo": "SINGLE"
          },
          {
            "atomIds": [
              1,
              2
            ],
            "bo": "SINGLE"
          },
          {
            "atomIds": [
              2,
              3
            ],
            "bo": "DOUBLE"
          },
          {
            "atomIds": [
              3,
              4
            ],
            "bo": "SINGLE"
          },
          {
            "atomIds": [
              4,
              5
            ],
            "bo": "DOUBLE"
          },
          {
            "atomIds": [
              5,
              6
            ],
            "bo": "SINGLE"
          },
          {
            "atomIds": [
              1,
              6
            ],
            "bo": "DOUBLE"
          },
          {
            "atomIds": [
              0,
              7
            ],
            "bo": "SINGLE"
          },
          {
            "atomIds": [
              0,
              8
            ],
            "bo": "SINGLE"
          },
          {
            "atomIds": [
              2,
              9
            ],
            "bo": "SINGLE"
          },
          {
            "atomIds": [
              3,
              10
            ],
            "bo": "SINGLE"
          },
          {
            "atomIds": [
              4,
              11
            ],
            "bo": "SINGLE"
          },
          {
            "atomIds": [
              5,
              12
            ],
            "bo": "SINGLE"
          }
        ]
      },
      "vertexId": 10209753,
      "buildingBlockId": 67,
      "buildingBlockType": "FRAGMENT",
      "isRCV": false,
      "properties": {
        "ATTACHMENT_POINTS": "1#bridge:0:SINGLE:-2.5958%-0.6501%-0.7558 7#bridge:0:SINGLE:-0.8149%2.0931%0.1475 ",
        "OLDVERTEXID": 188132
      },
      "uniquefyingPropertyKeys": [],
      "allowedMutationTypes": [
        "DELETE",
        "EXTEND",
        "CHANGEBRANCH",
        "CHANGELINK",
        "ADDLINK",
        "DELETELINK",
        "DELETECHAIN"
      ],
      "vertexType": "MolecularFragment"
    },
    {
      "lstAPs": [
        {
          "id": 17093498,
          "atomPositionNumber": 0,
          "atomPositionNumberInMol": -1,
          "apClass": {
            "rule": "bridge",
            "subClass": 0,
            "bndTyp": "SINGLE"
          },
          "dirVec": {
            "x": -2.5958,
            "y": -0.6501,
            "z": -0.7558
          }
        },
        {
          "id": 17093499,
          "atomPositionNumber": 6,
          "atomPositionNumberInMol": -1,
          "apClass": {
            "rule": "bridge",
            "subClass": 0,
            "bndTyp": "SINGLE"
          },
          "dirVec": {
            "x": -0.8149,
            "y": 2.0931,
            "z": 0.1475
          }
        }
      ],
      "lstSymAPs": [],
      "mol": {
        "atoms": [
          {
            "elSymbol": "C",
            "p3d": {
              "x": -1.8258,
              "y": -0.5811,
              "z": 0.5645
            }
          },
          {
            "elSymbol": "C",
            "p3d": {
              "x": -0.3615,
              "y": -0.3647,
              "z": 0.2814
            }
          },
          {
            "elSymbol": "C",
            "p3d": {
              "x": 0.4975,
              "y": -1.4461,
              "z": 0.2179
            }
          },
          {
            "elSymbol": "C",
            "p3d": {
              "x": 1.8404,
              "y": -1.2477,
              "z": -0.0418
            }
          },
          {
            "elSymbol": "C",
            "p3d": {
              "x": 2.3248,
              "y": 0.0323,
              "z": -0.2386
            }
          },
          {
            "elSymbol": "C",
            "p3d": {
              "x": 1.4658,
              "y": 1.1133,
              "z": -0.1761
            }
          },
          {
            "elSymbol": "C",
            "p3d": {
              "x": 0.1217,
              "y": 0.9144,
              "z": 0.0794
            }
          },
          {
            "elSymbol": "H",
            "p3d": {
              "x": -2.206,
              "y": 0.246,
              "z": 1.164
            }
          },
          {
            "elSymbol": "H",
            "p3d": {
              "x": -1.956,
              "y": -1.5155,
              "z": 1.1104
            }
          },
          {
            "elSymbol": "H",
            "p3d": {
              "x": 0.1192,
              "y": -2.446,
              "z": 0.3716
            }
          },
          {
            "elSymbol": "H",
            "p3d": {
              "x": 2.5116,
              "y": -2.0924,
              "z": -0.0906
            }
          },
          {
            "elSymbol": "H",
            "p3d": {
              "x": 3.3743,
              "y": 0.1874,
              "z": -0.4409
            }
          },
          {
            "elSymbol": "H",
            "p3d": {
              "x": 1.8441,
              "y": 2.1132,
              "z": -0.3295
            }
          }
        ],
        "bonds": [
          {
            "atomIds": [
              0,
              1
            ],
            "bo": "SINGLE"
          },
          {
            "atomIds": [
              1,
              2
            ],
            "bo": "SINGLE"
          },
          {
            "atomIds": [
              2,
              3
            ],
            "bo": "DOUBLE"
          },
          {
            "atomIds": [
              3,
              4
            ],
            "bo": "SINGLE"
          },
          {
            "atomIds": [
              4,
              5
            ],
            "bo": "DOUBLE"
          },
          {
            "atomIds": [
              5,
              6
            ],
            "bo": "SINGLE"
          },
          {
            "atomIds": [
              1,
              6
            ],
            "bo": "DOUBLE"
          },
          {
            "atomIds": [
              0,
              7
            ],
            "bo": "SINGLE"
          },
          {
            "atomIds": [
              0,
              8
            ],
            "bo": "SINGLE"
          },
          {
            "atomIds": [
              2,
              9
            ],
            "bo": "SINGLE"
          },
          {
            "atomIds": [
              3,
              10
            ],
            "bo": "SINGLE"
          },
          {
            "atomIds": [
              4,
              11
            ],
            "bo": "SINGLE"
          },
          {
            "atomIds": [
              5,
              12
            ],
            "bo": "SINGLE"
          }
        ]
      },
      "vertexId": 10209754,
      "buildingBlockId": 67,
      "buildingBlockType": "FRAGMENT",
      "isRCV": false,
      "properties": {
        "ATTACHMENT_POINTS": "1#bridge:0:SINGLE:-2.5958%-0.6501%-0.7558 7#bridge:0:SINGLE:-0.8149%2.0931%0.1475 ",
        "OLDVERTEXID": 188250
      },
      "uniquefyingPropertyKeys": [],
      "allowedMutationTypes": [
        "DELETE",
        "EXTEND",
        "CHANGEBRANCH",
        "CHANGELINK",
        "ADDLINK",
        "DELETELINK",
        "DELETECHAIN"
      ],
      "vertexType": "MolecularFragment"
    },
    {
      "lstAPs": [
        {
          "id": 17093500,
          "atomPositionNumber": 0,
          "atomPositionNumberInMol": -1,
          "apClass": {
            "rule": "ATminus",
            "subClass": 0,
            "bndTyp": "ANY"
          },
          "dirVec": {
            "x": 0.0109,
            "y": -0.0071,
            "z": 0.0026
          }
        }
      ],
      "lstSymAPs": [],
      "mol": {
        "atoms": [
          {
            "elSymbol": "ATM",
            "p3d": {
              "x": -0.0096,
              "y": 0.0045,
              "z": -0.0011
            }
          }
        ],
        "bonds": []
      },
      "vertexId": 10209755,
      "buildingBlockId": 79,
      "buildingBlockType": "FRAGMENT",
      "isRCV": true,
      "properties": {
        "ATTACHMENT_POINTS": "1#ATminus:0:ANY:0.0109%-0.0071%0.0026 ",
        "OLDVERTEXID": 10209448
      },
      "uniquefyingPropertyKeys": [],
      "allowedMutationTypes": [
        "DELETE",
        "EXTEND",
        "CHANGEBRANCH",
        "CHANGELINK",
        "ADDLINK",
        "DELETELINK",
        "DELETECHAIN"
      ],
      "vertexType": "MolecularFragment"
    },
    {
      "lstAPs": [
        {
          "id": 17093501,
          "atomPositionNumber": 0,
          "atomPositionNumberInMol": -1,
          "apClass": {
            "rule": "ATminus",
            "subClass": 0,
            "bndTyp": "ANY"
          },
          "dirVec": {
            "x": 0.0109,
            "y": -0.0071,
            "z": 0.0026
          }
        }
      ],
      "lstSymAPs": [],
      "mol": {
        "atoms": [
          {
            "elSymbol": "ATM",
            "p3d": {
              "x": -0.0096,
              "y": 0.0045,
              "z": -0.0011
            }
          }
        ],
        "bonds": []
      },
      "vertexId": 10209756,
      "buildingBlockId": 79,
      "buildingBlockType": "FRAGMENT",
      "isRCV": true,
      "properties": {
        "ATTACHMENT_POINTS": "1#ATminus:0:ANY:0.0109%-0.0071%0.0026 ",
        "OLDVERTEXID": 10209446
      },
      "uniquefyingPropertyKeys": [],
      "allowedMutationTypes": [
        "DELETE",
        "EXTEND",
        "CHANGEBRANCH",
        "CHANGELINK",
        "ADDLINK",
        "DELETELINK",
        "DELETECHAIN"
      ],
      "vertexType": "MolecularFragment"
    }
  ],
  "gEdges": [
    {
      "srcAPID": 17093462,
      "trgAPID": 17093465,
      "bondType": "SINGLE"
    },
    {
      "srcAPID": 17093463,
      "trgAPID": 17093468,
      "bondType": "SINGLE"
    },
    {
      "srcAPID": 17093464,
      "trgAPID": 17093469,
      "bondType": "SINGLE"
    },
    {
      "srcAPID": 17093466,
      "trgAPID": 17093470,
      "bondType": "SINGLE"
    },
    {
      "srcAPID": 17093460,
      "trgAPID": 17093471,
      "bondType": "SINGLE"
    },
    {
      "srcAPID": 17093461,
      "trgAPID": 17093473,
      "bondType": "SINGLE"
    },
    {
      "srcAPID": 17093467,
      "trgAPID": 17093475,
      "bondType": "SINGLE"
    },
    {
      "srcAPID": 17093472,
      "trgAPID": 17093477,
      "bondType": "SINGLE"
    },
    {
      "srcAPID": 17093474,
      "trgAPID": 17093499,
      "bondType": "SINGLE"
    },
    {
      "srcAPID": 17093498,
      "trgAPID": 17093500,
      "bondType": "SINGLE"
    },
    {
      "srcAPID": 17093476,
      "trgAPID": 17093501,
      "bondType": "SINGLE"
    }
  ],
  "gRings": [
    {
      "vertices": [
        10209721,
        10209720,
        10209719,
        10209750,
        10209753,
        10209756
      ],
      "bndTyp": "SINGLE"
    },
    {
      "vertices": [
        10209722,
        10209720,
        10209719,
        10209751,
        10209754,
        10209755
      ],
      "bndTyp": "SINGLE"
    }
  ],
  "symVertices": [
    {
      "symIds": [
        10209721,
        10209722
      ]
    },
    {
      "symIds": [
        10209750,
        10209751
      ]
    },
    {
      "symIds": [
        10209723,
        10209752
      ]
    },
    {
      "symIds": [
        10209753,
        10209754
      ]
    },
    {
      "symIds": [
        10209755,
        10209756
      ]
    }
  ]
}

> <SMILES>
[Pt]12(C#O)[C]3N(C(C(N3C(C=4C(=C(C(=C(C4O1)[H])[H])[H])[H])([H])[H])([H])[H])(C([H])([H])[H])C([H])([H])[H])C(C=5C(=C(C(=C(C5O2)[H])[H])[H])[H])([H])[H]

$$$$
